
---------- Begin Simulation Statistics ----------
final_tick                                 3516707000                       # Number of ticks from beginning of simulation (restored from checkpoints and never reset)
host_inst_rate                                 191971                       # Simulator instruction rate (inst/s)
host_mem_usage                                 805612                       # Number of bytes of host memory used
host_op_rate                                   414079                       # Simulator op (including micro ops) rate (op/s)
host_seconds                                     0.22                       # Real time elapsed on the host
host_tick_rate                            16348873851                       # Simulator tick rate (ticks/s)
sim_freq                                 1000000000000                       # Frequency of simulated ticks
sim_insts                                       41261                       # Number of instructions simulated
sim_ops                                         89061                       # Number of ops (including micro ops) simulated
sim_seconds                                  0.003517                       # Number of seconds simulated
sim_ticks                                  3516707000                       # Number of ticks simulated
system.clk_domain.clock                          1000                       # Clock period in ticks
system.clk_domain.voltage_domain.voltage            1                       # Voltage in Volts
system.cpu.Branches                             10643                       # Number of branches fetched
system.cpu.committedInsts                       41261                       # Number of instructions committed
system.cpu.committedOps                         89061                       # Number of ops (including micro ops) committed
system.cpu.dtb.rdAccesses                       11973                       # TLB accesses on read requests
system.cpu.dtb.rdMisses                            14                       # TLB misses on read requests
system.cpu.dtb.walker.pwrStateResidencyTicks::UNDEFINED   3516707000                       # Cumulative time (in ticks) in various power states
system.cpu.dtb.wrAccesses                        6805                       # TLB accesses on write requests
system.cpu.dtb.wrMisses                             8                       # TLB misses on write requests
system.cpu.idle_fraction                     0.000000                       # Percentage of idle cycles
system.cpu.interrupts.clk_domain.clock          16000                       # Clock period in ticks
system.cpu.interrupts.pwrStateResidencyTicks::UNDEFINED   3516707000                       # Cumulative time (in ticks) in various power states
system.cpu.itb.rdAccesses                           0                       # TLB accesses on read requests
system.cpu.itb.rdMisses                             0                       # TLB misses on read requests
system.cpu.itb.walker.pwrStateResidencyTicks::UNDEFINED   3516707000                       # Cumulative time (in ticks) in various power states
system.cpu.itb.wrAccesses                       53548                       # TLB accesses on write requests
system.cpu.itb.wrMisses                            49                       # TLB misses on write requests
system.cpu.not_idle_fraction                 1.000000                       # Percentage of non-idle cycles
system.cpu.numCycles                          3516707                       # number of cpu cycles simulated
system.cpu.numWorkItemsCompleted                    0                       # number of work items this cpu completed
system.cpu.numWorkItemsStarted                      0                       # number of work items this cpu started
system.cpu.num_busy_cycles               3516706.999000                       # Number of busy cycles
system.cpu.num_cc_register_reads                50035                       # number of times the CC registers were read
system.cpu.num_cc_register_writes               29249                       # number of times the CC registers were written
system.cpu.num_conditional_control_insts         8572                       # number of instructions that are conditional controls
system.cpu.num_fp_alu_accesses                    542                       # Number of float alu accesses
system.cpu.num_fp_insts                           542                       # number of float instructions
system.cpu.num_fp_register_reads                  802                       # number of times the floating registers were read
system.cpu.num_fp_register_writes                 328                       # number of times the floating registers were written
system.cpu.num_func_calls                        1383                       # number of times a function call or return occured
system.cpu.num_idle_cycles                   0.001000                       # Number of idle cycles
system.cpu.num_int_alu_accesses                 88617                       # Number of integer alu accesses
system.cpu.num_int_insts                        88617                       # number of integer instructions
system.cpu.num_int_register_reads              162439                       # number of times the integer registers were read
system.cpu.num_int_register_writes              71204                       # number of times the integer registers were written
system.cpu.num_load_insts                       11970                       # Number of load instructions
system.cpu.num_mem_refs                         18775                       # number of memory refs
system.cpu.num_store_insts                       6805                       # Number of store instructions
system.cpu.num_vec_alu_accesses                     0                       # Number of vector alu accesses
system.cpu.num_vec_insts                            0                       # number of vector instructions
system.cpu.num_vec_register_reads                   0                       # number of times the vector registers were read
system.cpu.num_vec_register_writes                  0                       # number of times the vector registers were written
system.cpu.op_class::No_OpClass                    71      0.08%      0.08% # Class of executed instruction
system.cpu.op_class::IntAlu                     69855     78.44%     78.51% # Class of executed instruction
system.cpu.op_class::IntMult                       13      0.01%     78.53% # Class of executed instruction
system.cpu.op_class::IntDiv                        35      0.04%     78.57% # Class of executed instruction
system.cpu.op_class::FloatAdd                      12      0.01%     78.58% # Class of executed instruction
system.cpu.op_class::FloatCmp                       0      0.00%     78.58% # Class of executed instruction
system.cpu.op_class::FloatCvt                       0      0.00%     78.58% # Class of executed instruction
system.cpu.op_class::FloatMult                      0      0.00%     78.58% # Class of executed instruction
system.cpu.op_class::FloatMultAcc                   0      0.00%     78.58% # Class of executed instruction
system.cpu.op_class::FloatDiv                       0      0.00%     78.58% # Class of executed instruction
system.cpu.op_class::FloatMisc                      0      0.00%     78.58% # Class of executed instruction
system.cpu.op_class::FloatSqrt                      0      0.00%     78.58% # Class of executed instruction
system.cpu.op_class::SimdAdd                        0      0.00%     78.58% # Class of executed instruction
system.cpu.op_class::SimdAddAcc                     0      0.00%     78.58% # Class of executed instruction
system.cpu.op_class::SimdAlu                       86      0.10%     78.68% # Class of executed instruction
system.cpu.op_class::SimdCmp                        0      0.00%     78.68% # Class of executed instruction
system.cpu.op_class::SimdCvt                       68      0.08%     78.76% # Class of executed instruction
system.cpu.op_class::SimdMisc                     146      0.16%     78.92% # Class of executed instruction
system.cpu.op_class::SimdMult                       0      0.00%     78.92% # Class of executed instruction
system.cpu.op_class::SimdMultAcc                    0      0.00%     78.92% # Class of executed instruction
system.cpu.op_class::SimdShift                      0      0.00%     78.92% # Class of executed instruction
system.cpu.op_class::SimdShiftAcc                   0      0.00%     78.92% # Class of executed instruction
system.cpu.op_class::SimdDiv                        0      0.00%     78.92% # Class of executed instruction
system.cpu.op_class::SimdSqrt                       0      0.00%     78.92% # Class of executed instruction
system.cpu.op_class::SimdFloatAdd                   0      0.00%     78.92% # Class of executed instruction
system.cpu.op_class::SimdFloatAlu                   0      0.00%     78.92% # Class of executed instruction
system.cpu.op_class::SimdFloatCmp                   0      0.00%     78.92% # Class of executed instruction
system.cpu.op_class::SimdFloatCvt                   0      0.00%     78.92% # Class of executed instruction
system.cpu.op_class::SimdFloatDiv                   0      0.00%     78.92% # Class of executed instruction
system.cpu.op_class::SimdFloatMisc                  0      0.00%     78.92% # Class of executed instruction
system.cpu.op_class::SimdFloatMult                  0      0.00%     78.92% # Class of executed instruction
system.cpu.op_class::SimdFloatMultAcc               0      0.00%     78.92% # Class of executed instruction
system.cpu.op_class::SimdFloatSqrt                  0      0.00%     78.92% # Class of executed instruction
system.cpu.op_class::SimdReduceAdd                  0      0.00%     78.92% # Class of executed instruction
system.cpu.op_class::SimdReduceAlu                  0      0.00%     78.92% # Class of executed instruction
system.cpu.op_class::SimdReduceCmp                  0      0.00%     78.92% # Class of executed instruction
system.cpu.op_class::SimdFloatReduceAdd             0      0.00%     78.92% # Class of executed instruction
system.cpu.op_class::SimdFloatReduceCmp             0      0.00%     78.92% # Class of executed instruction
system.cpu.op_class::SimdAes                        0      0.00%     78.92% # Class of executed instruction
system.cpu.op_class::SimdAesMix                     0      0.00%     78.92% # Class of executed instruction
system.cpu.op_class::SimdSha1Hash                   0      0.00%     78.92% # Class of executed instruction
system.cpu.op_class::SimdSha1Hash2                  0      0.00%     78.92% # Class of executed instruction
system.cpu.op_class::SimdSha256Hash                 0      0.00%     78.92% # Class of executed instruction
system.cpu.op_class::SimdSha256Hash2                0      0.00%     78.92% # Class of executed instruction
system.cpu.op_class::SimdShaSigma2                  0      0.00%     78.92% # Class of executed instruction
system.cpu.op_class::SimdShaSigma3                  0      0.00%     78.92% # Class of executed instruction
system.cpu.op_class::SimdPredAlu                    0      0.00%     78.92% # Class of executed instruction
system.cpu.op_class::MemRead                    11920     13.38%     92.30% # Class of executed instruction
system.cpu.op_class::MemWrite                    6653      7.47%     99.77% # Class of executed instruction
system.cpu.op_class::FloatMemRead                  50      0.06%     99.83% # Class of executed instruction
system.cpu.op_class::FloatMemWrite                152      0.17%    100.00% # Class of executed instruction
system.cpu.op_class::IprAccess                      0      0.00%    100.00% # Class of executed instruction
system.cpu.op_class::InstPrefetch                   0      0.00%    100.00% # Class of executed instruction
system.cpu.op_class::total                      89061                       # Class of executed instruction
system.cpu.pwrStateResidencyTicks::ON      3516707000                       # Cumulative time (in ticks) in various power states
system.cpu.workload.numSyscalls                    21                       # Number of system calls
system.mem_ctrl.avgBusLat                     5000.00                       # Average bus latency per DRAM burst
system.mem_ctrl.avgGap                       48621.26                       # Average gap between requests
system.mem_ctrl.avgMemAccLat                 21916.70                       # Average memory access latency per DRAM burst
system.mem_ctrl.avgPriority_.cpu.inst::samples     53548.00                       # Average QoS priority value for accepted requests
system.mem_ctrl.avgPriority_.cpu.data::samples     10835.00                       # Average QoS priority value for accepted requests
system.mem_ctrl.avgQLat                       3166.70                       # Average queueing delay per DRAM burst
system.mem_ctrl.avgRdBW                       1166.58                       # Average DRAM read bandwidth in MiByte/s
system.mem_ctrl.avgRdBWSys                     142.03                       # Average system read bandwidth in MiByte/s
system.mem_ctrl.avgRdQLen                        1.00                       # Average read queue length when enqueuing
system.mem_ctrl.avgWrBW                          4.66                       # Average achieved write bandwidth in MiByte/s
system.mem_ctrl.avgWrBWSys                      12.21                       # Average system write bandwidth in MiByte/s
system.mem_ctrl.avgWrQLen                       26.28                       # Average write queue length when enqueuing
system.mem_ctrl.busUtil                          9.15                       # Data bus utilization in percentage
system.mem_ctrl.busUtilRead                      9.11                       # Data bus utilization in percentage for reads
system.mem_ctrl.busUtilWrite                     0.04                       # Data bus utilization in percentage for writes
system.mem_ctrl.bw_inst_read::.cpu.inst     121813958                       # Instruction read bandwidth from this memory (bytes/s)
system.mem_ctrl.bw_inst_read::total         121813958                       # Instruction read bandwidth from this memory (bytes/s)
system.mem_ctrl.bw_read::.cpu.inst          121813958                       # Total read bandwidth from this memory (bytes/s)
system.mem_ctrl.bw_read::.cpu.data           20218915                       # Total read bandwidth from this memory (bytes/s)
system.mem_ctrl.bw_read::total              142032873                       # Total read bandwidth from this memory (bytes/s)
system.mem_ctrl.bw_total::.cpu.inst         121813958                       # Total bandwidth to/from this memory (bytes/s)
system.mem_ctrl.bw_total::.cpu.data          32433467                       # Total bandwidth to/from this memory (bytes/s)
system.mem_ctrl.bw_total::total             154247425                       # Total bandwidth to/from this memory (bytes/s)
system.mem_ctrl.bw_write::.cpu.data          12214552                       # Write bandwidth from this memory (bytes/s)
system.mem_ctrl.bw_write::total              12214552                       # Write bandwidth from this memory (bytes/s)
system.mem_ctrl.bytesPerActivate::samples         5941                       # Bytes accessed per row activation
system.mem_ctrl.bytesPerActivate::mean     692.925770                       # Bytes accessed per row activation
system.mem_ctrl.bytesPerActivate::gmean    498.470766                       # Bytes accessed per row activation
system.mem_ctrl.bytesPerActivate::stdev    384.721316                       # Bytes accessed per row activation
system.mem_ctrl.bytesPerActivate::0-127           827     13.92%     13.92% # Bytes accessed per row activation
system.mem_ctrl.bytesPerActivate::128-255          513      8.63%     22.56% # Bytes accessed per row activation
system.mem_ctrl.bytesPerActivate::256-383          294      4.95%     27.50% # Bytes accessed per row activation
system.mem_ctrl.bytesPerActivate::384-511          279      4.70%     32.20% # Bytes accessed per row activation
system.mem_ctrl.bytesPerActivate::512-639          389      6.55%     38.75% # Bytes accessed per row activation
system.mem_ctrl.bytesPerActivate::640-767          246      4.14%     42.89% # Bytes accessed per row activation
system.mem_ctrl.bytesPerActivate::768-895          248      4.17%     47.06% # Bytes accessed per row activation
system.mem_ctrl.bytesPerActivate::896-1023          270      4.54%     51.61% # Bytes accessed per row activation
system.mem_ctrl.bytesPerActivate::1024-1151         2875     48.39%    100.00% # Bytes accessed per row activation
system.mem_ctrl.bytesPerActivate::total          5941                       # Bytes accessed per row activation
system.mem_ctrl.bytesReadDRAM                 4102528                       # Total number of bytes read from DRAM
system.mem_ctrl.bytesReadSys                   499488                       # Total read bytes from the system interface side
system.mem_ctrl.bytesReadWrQ                    90816                       # Total number of bytes read from write queue
system.mem_ctrl.bytesWritten                    16384                       # Total number of bytes written to DRAM
system.mem_ctrl.bytesWrittenSys                 42955                       # Total written bytes from the system interface side
system.mem_ctrl.bytes_inst_read::.cpu.inst       428384                       # Number of instructions bytes read from this memory
system.mem_ctrl.bytes_inst_read::total         428384                       # Number of instructions bytes read from this memory
system.mem_ctrl.bytes_read::.cpu.inst          428384                       # Number of bytes read from this memory
system.mem_ctrl.bytes_read::.cpu.data           71104                       # Number of bytes read from this memory
system.mem_ctrl.bytes_read::total              499488                       # Number of bytes read from this memory
system.mem_ctrl.bytes_written::.cpu.data        42955                       # Number of bytes written to this memory
system.mem_ctrl.bytes_written::total            42955                       # Number of bytes written to this memory
system.mem_ctrl.masterReadAccesses::.cpu.inst        53548                       # Per-master read serviced memory accesses
system.mem_ctrl.masterReadAccesses::.cpu.data        11973                       # Per-master read serviced memory accesses
system.mem_ctrl.masterReadAvgLat::.cpu.inst     21597.68                       # Per-master read average memory access latency
system.mem_ctrl.masterReadAvgLat::.cpu.data     20745.97                       # Per-master read average memory access latency
system.mem_ctrl.masterReadBytes::.cpu.inst       428384                       # Per-master bytes read from memory
system.mem_ctrl.masterReadBytes::.cpu.data        62817                       # Per-master bytes read from memory
system.mem_ctrl.masterReadRate::.cpu.inst 121813958.342278733850                       # Per-master bytes read from memory rate (Bytes/sec)
system.mem_ctrl.masterReadRate::.cpu.data 17862449.160535693169                       # Per-master bytes read from memory rate (Bytes/sec)
system.mem_ctrl.masterReadTotalLat::.cpu.inst   1156512500                       # Per-master read total memory access latency
system.mem_ctrl.masterReadTotalLat::.cpu.data    248391500                       # Per-master read total memory access latency
system.mem_ctrl.masterWriteAccesses::.cpu.data         6805                       # Per-master write serviced memory accesses
system.mem_ctrl.masterWriteAvgLat::.cpu.data   7538914.88                       # Per-master write average memory access latency
system.mem_ctrl.masterWriteBytes::.cpu.data         1735                       # Per-master bytes write to memory
system.mem_ctrl.masterWriteRate::.cpu.data 493359.270476613485                       # Per-master bytes write to memory rate (Bytes/sec)
system.mem_ctrl.masterWriteTotalLat::.cpu.data  51302315750                       # Per-master write total memory access latency
system.mem_ctrl.mergedWrBursts                   6524                       # Number of DRAM write bursts merged with an existing one
system.mem_ctrl.neitherReadNorWriteReqs             0                       # Number of requests that are neither read nor write
system.mem_ctrl.numRdRetry                          0                       # Number of times read queue was full causing retry
system.mem_ctrl.numReadWriteTurnArounds            16                       # Number of turnarounds from READ to WRITE
system.mem_ctrl.numStayReadState               135894                       # Number of times bus staying in READ state
system.mem_ctrl.numStayWriteState                 240                       # Number of times bus staying in WRITE state
system.mem_ctrl.numWrRetry                          0                       # Number of times write queue was full causing retry
system.mem_ctrl.numWriteReadTurnArounds            16                       # Number of turnarounds from WRITE to READ
system.mem_ctrl.num_reads::.cpu.inst            53548                       # Number of read requests responded to by this memory
system.mem_ctrl.num_reads::.cpu.data            11973                       # Number of read requests responded to by this memory
system.mem_ctrl.num_reads::total                65521                       # Number of read requests responded to by this memory
system.mem_ctrl.num_writes::.cpu.data            6805                       # Number of write requests responded to by this memory
system.mem_ctrl.num_writes::total                6805                       # Number of write requests responded to by this memory
system.mem_ctrl.pageHitRate                     90.72                       # Row buffer hit rate, read and write combined
system.mem_ctrl.peakBW                       12800.00                       # Theoretical peak bandwidth in MiByte/s
system.mem_ctrl.perBankRdBursts::0              21162                       # Per bank write bursts
system.mem_ctrl.perBankRdBursts::1               1822                       # Per bank write bursts
system.mem_ctrl.perBankRdBursts::2                418                       # Per bank write bursts
system.mem_ctrl.perBankRdBursts::3                582                       # Per bank write bursts
system.mem_ctrl.perBankRdBursts::4                  2                       # Per bank write bursts
system.mem_ctrl.perBankRdBursts::5               3118                       # Per bank write bursts
system.mem_ctrl.perBankRdBursts::6               1411                       # Per bank write bursts
system.mem_ctrl.perBankRdBursts::7               6322                       # Per bank write bursts
system.mem_ctrl.perBankRdBursts::8              11157                       # Per bank write bursts
system.mem_ctrl.perBankRdBursts::9               2366                       # Per bank write bursts
system.mem_ctrl.perBankRdBursts::10             11958                       # Per bank write bursts
system.mem_ctrl.perBankRdBursts::11               659                       # Per bank write bursts
system.mem_ctrl.perBankRdBursts::12               965                       # Per bank write bursts
system.mem_ctrl.perBankRdBursts::13               948                       # Per bank write bursts
system.mem_ctrl.perBankRdBursts::14               557                       # Per bank write bursts
system.mem_ctrl.perBankRdBursts::15               655                       # Per bank write bursts
system.mem_ctrl.perBankWrBursts::0                  0                       # Per bank write bursts
system.mem_ctrl.perBankWrBursts::1                  0                       # Per bank write bursts
system.mem_ctrl.perBankWrBursts::2                  0                       # Per bank write bursts
system.mem_ctrl.perBankWrBursts::3                  0                       # Per bank write bursts
system.mem_ctrl.perBankWrBursts::4                  0                       # Per bank write bursts
system.mem_ctrl.perBankWrBursts::5                 57                       # Per bank write bursts
system.mem_ctrl.perBankWrBursts::6                 52                       # Per bank write bursts
system.mem_ctrl.perBankWrBursts::7                 99                       # Per bank write bursts
system.mem_ctrl.perBankWrBursts::8                  5                       # Per bank write bursts
system.mem_ctrl.perBankWrBursts::9                 43                       # Per bank write bursts
system.mem_ctrl.perBankWrBursts::10                 0                       # Per bank write bursts
system.mem_ctrl.perBankWrBursts::11                 0                       # Per bank write bursts
system.mem_ctrl.perBankWrBursts::12                 0                       # Per bank write bursts
system.mem_ctrl.perBankWrBursts::13                 0                       # Per bank write bursts
system.mem_ctrl.perBankWrBursts::14                 0                       # Per bank write bursts
system.mem_ctrl.perBankWrBursts::15                 0                       # Per bank write bursts
system.mem_ctrl.priorityMaxLatency       0.005474973250                       # per QoS priority maximum request to response latency (s)
system.mem_ctrl.priorityMinLatency       0.000000018750                       # per QoS priority minimum request to response latency (s)
system.mem_ctrl.pwrStateResidencyTicks::UNDEFINED   3516707000                       # Cumulative time (in ticks) in various power states
system.mem_ctrl.rdPerTurnAround::samples           16                       # Reads before turning the bus around for writes
system.mem_ctrl.rdPerTurnAround::mean            3985                       # Reads before turning the bus around for writes
system.mem_ctrl.rdPerTurnAround::gmean    1157.227484                       # Reads before turning the bus around for writes
system.mem_ctrl.rdPerTurnAround::stdev    9674.286882                       # Reads before turning the bus around for writes
system.mem_ctrl.rdPerTurnAround::0-2047            13     81.25%     81.25% # Reads before turning the bus around for writes
system.mem_ctrl.rdPerTurnAround::2048-4095            1      6.25%     87.50% # Reads before turning the bus around for writes
system.mem_ctrl.rdPerTurnAround::10240-12287            1      6.25%     93.75% # Reads before turning the bus around for writes
system.mem_ctrl.rdPerTurnAround::36864-38911            1      6.25%    100.00% # Reads before turning the bus around for writes
system.mem_ctrl.rdPerTurnAround::total             16                       # Reads before turning the bus around for writes
system.mem_ctrl.rdQLenPdf::0                    64099                       # What read queue length does an incoming req see
system.mem_ctrl.rdQLenPdf::1                        3                       # What read queue length does an incoming req see
system.mem_ctrl.rdQLenPdf::2                        0                       # What read queue length does an incoming req see
system.mem_ctrl.rdQLenPdf::3                        0                       # What read queue length does an incoming req see
system.mem_ctrl.rdQLenPdf::4                        0                       # What read queue length does an incoming req see
system.mem_ctrl.rdQLenPdf::5                        0                       # What read queue length does an incoming req see
system.mem_ctrl.rdQLenPdf::6                        0                       # What read queue length does an incoming req see
system.mem_ctrl.rdQLenPdf::7                        0                       # What read queue length does an incoming req see
system.mem_ctrl.rdQLenPdf::8                        0                       # What read queue length does an incoming req see
system.mem_ctrl.rdQLenPdf::9                        0                       # What read queue length does an incoming req see
system.mem_ctrl.rdQLenPdf::10                       0                       # What read queue length does an incoming req see
system.mem_ctrl.rdQLenPdf::11                       0                       # What read queue length does an incoming req see
system.mem_ctrl.rdQLenPdf::12                       0                       # What read queue length does an incoming req see
system.mem_ctrl.rdQLenPdf::13                       0                       # What read queue length does an incoming req see
system.mem_ctrl.rdQLenPdf::14                       0                       # What read queue length does an incoming req see
system.mem_ctrl.rdQLenPdf::15                       0                       # What read queue length does an incoming req see
system.mem_ctrl.rdQLenPdf::16                       0                       # What read queue length does an incoming req see
system.mem_ctrl.rdQLenPdf::17                       0                       # What read queue length does an incoming req see
system.mem_ctrl.rdQLenPdf::18                       0                       # What read queue length does an incoming req see
system.mem_ctrl.rdQLenPdf::19                       0                       # What read queue length does an incoming req see
system.mem_ctrl.rdQLenPdf::20                       0                       # What read queue length does an incoming req see
system.mem_ctrl.rdQLenPdf::21                       0                       # What read queue length does an incoming req see
system.mem_ctrl.rdQLenPdf::22                       0                       # What read queue length does an incoming req see
system.mem_ctrl.rdQLenPdf::23                       0                       # What read queue length does an incoming req see
system.mem_ctrl.rdQLenPdf::24                       0                       # What read queue length does an incoming req see
system.mem_ctrl.rdQLenPdf::25                       0                       # What read queue length does an incoming req see
system.mem_ctrl.rdQLenPdf::26                       0                       # What read queue length does an incoming req see
system.mem_ctrl.rdQLenPdf::27                       0                       # What read queue length does an incoming req see
system.mem_ctrl.rdQLenPdf::28                       0                       # What read queue length does an incoming req see
system.mem_ctrl.rdQLenPdf::29                       0                       # What read queue length does an incoming req see
system.mem_ctrl.rdQLenPdf::30                       0                       # What read queue length does an incoming req see
system.mem_ctrl.rdQLenPdf::31                       0                       # What read queue length does an incoming req see
system.mem_ctrl.readBursts                      65521                       # Number of DRAM read bursts, including those serviced by the write queue
system.mem_ctrl.readPktSize::0                    158                       # Read request sizes (log2)
system.mem_ctrl.readPktSize::1                     31                       # Read request sizes (log2)
system.mem_ctrl.readPktSize::2                   5846                       # Read request sizes (log2)
system.mem_ctrl.readPktSize::3                  59486                       # Read request sizes (log2)
system.mem_ctrl.readPktSize::4                      0                       # Read request sizes (log2)
system.mem_ctrl.readPktSize::5                      0                       # Read request sizes (log2)
system.mem_ctrl.readPktSize::6                      0                       # Read request sizes (log2)
system.mem_ctrl.readReqs                        65521                       # Number of read requests accepted
system.mem_ctrl.readRowHitRate                  90.75                       # Row buffer hit rate for reads
system.mem_ctrl.readRowHits                     58175                       # Number of row buffer hits during reads
system.mem_ctrl.servicedByWrQ                    1419                       # Number of DRAM read bursts serviced by the write queue
system.mem_ctrl.totBusLat                   320510000                       # Total ticks spent in databus transfers
system.mem_ctrl.totGap                     3516581000                       # Total gap between requests
system.mem_ctrl.totMemAccLat               1404904000                       # Total ticks spent from burst creation until serviced by the DRAM
system.mem_ctrl.totQLat                     202991500                       # Total ticks spent queuing
system.mem_ctrl.wrPerTurnAround::samples           16                       # Writes before turning the bus around for reads
system.mem_ctrl.wrPerTurnAround::mean              16                       # Writes before turning the bus around for reads
system.mem_ctrl.wrPerTurnAround::gmean      16.000000                       # Writes before turning the bus around for reads
system.mem_ctrl.wrPerTurnAround::16                16    100.00%    100.00% # Writes before turning the bus around for reads
system.mem_ctrl.wrPerTurnAround::total             16                       # Writes before turning the bus around for reads
system.mem_ctrl.wrQLenPdf::0                        1                       # What write queue length does an incoming req see
system.mem_ctrl.wrQLenPdf::1                        1                       # What write queue length does an incoming req see
system.mem_ctrl.wrQLenPdf::2                        1                       # What write queue length does an incoming req see
system.mem_ctrl.wrQLenPdf::3                        1                       # What write queue length does an incoming req see
system.mem_ctrl.wrQLenPdf::4                        1                       # What write queue length does an incoming req see
system.mem_ctrl.wrQLenPdf::5                        1                       # What write queue length does an incoming req see
system.mem_ctrl.wrQLenPdf::6                        1                       # What write queue length does an incoming req see
system.mem_ctrl.wrQLenPdf::7                        1                       # What write queue length does an incoming req see
system.mem_ctrl.wrQLenPdf::8                        1                       # What write queue length does an incoming req see
system.mem_ctrl.wrQLenPdf::9                        1                       # What write queue length does an incoming req see
system.mem_ctrl.wrQLenPdf::10                       1                       # What write queue length does an incoming req see
system.mem_ctrl.wrQLenPdf::11                       1                       # What write queue length does an incoming req see
system.mem_ctrl.wrQLenPdf::12                       1                       # What write queue length does an incoming req see
system.mem_ctrl.wrQLenPdf::13                       1                       # What write queue length does an incoming req see
system.mem_ctrl.wrQLenPdf::14                       1                       # What write queue length does an incoming req see
system.mem_ctrl.wrQLenPdf::15                       1                       # What write queue length does an incoming req see
system.mem_ctrl.wrQLenPdf::16                       1                       # What write queue length does an incoming req see
system.mem_ctrl.wrQLenPdf::17                      17                       # What write queue length does an incoming req see
system.mem_ctrl.wrQLenPdf::18                      17                       # What write queue length does an incoming req see
system.mem_ctrl.wrQLenPdf::19                      17                       # What write queue length does an incoming req see
system.mem_ctrl.wrQLenPdf::20                      17                       # What write queue length does an incoming req see
system.mem_ctrl.wrQLenPdf::21                      17                       # What write queue length does an incoming req see
system.mem_ctrl.wrQLenPdf::22                      17                       # What write queue length does an incoming req see
system.mem_ctrl.wrQLenPdf::23                      17                       # What write queue length does an incoming req see
system.mem_ctrl.wrQLenPdf::24                      17                       # What write queue length does an incoming req see
system.mem_ctrl.wrQLenPdf::25                      16                       # What write queue length does an incoming req see
system.mem_ctrl.wrQLenPdf::26                      16                       # What write queue length does an incoming req see
system.mem_ctrl.wrQLenPdf::27                      16                       # What write queue length does an incoming req see
system.mem_ctrl.wrQLenPdf::28                      16                       # What write queue length does an incoming req see
system.mem_ctrl.wrQLenPdf::29                      16                       # What write queue length does an incoming req see
system.mem_ctrl.wrQLenPdf::30                      16                       # What write queue length does an incoming req see
system.mem_ctrl.wrQLenPdf::31                      16                       # What write queue length does an incoming req see
system.mem_ctrl.wrQLenPdf::32                      16                       # What write queue length does an incoming req see
system.mem_ctrl.wrQLenPdf::33                       0                       # What write queue length does an incoming req see
system.mem_ctrl.wrQLenPdf::34                       0                       # What write queue length does an incoming req see
system.mem_ctrl.wrQLenPdf::35                       0                       # What write queue length does an incoming req see
system.mem_ctrl.wrQLenPdf::36                       0                       # What write queue length does an incoming req see
system.mem_ctrl.wrQLenPdf::37                       0                       # What write queue length does an incoming req see
system.mem_ctrl.wrQLenPdf::38                       0                       # What write queue length does an incoming req see
system.mem_ctrl.wrQLenPdf::39                       0                       # What write queue length does an incoming req see
system.mem_ctrl.wrQLenPdf::40                       0                       # What write queue length does an incoming req see
system.mem_ctrl.wrQLenPdf::41                       0                       # What write queue length does an incoming req see
system.mem_ctrl.wrQLenPdf::42                       0                       # What write queue length does an incoming req see
system.mem_ctrl.wrQLenPdf::43                       0                       # What write queue length does an incoming req see
system.mem_ctrl.wrQLenPdf::44                       0                       # What write queue length does an incoming req see
system.mem_ctrl.wrQLenPdf::45                       0                       # What write queue length does an incoming req see
system.mem_ctrl.wrQLenPdf::46                       0                       # What write queue length does an incoming req see
system.mem_ctrl.wrQLenPdf::47                       0                       # What write queue length does an incoming req see
system.mem_ctrl.wrQLenPdf::48                       0                       # What write queue length does an incoming req see
system.mem_ctrl.wrQLenPdf::49                       0                       # What write queue length does an incoming req see
system.mem_ctrl.wrQLenPdf::50                       0                       # What write queue length does an incoming req see
system.mem_ctrl.wrQLenPdf::51                       0                       # What write queue length does an incoming req see
system.mem_ctrl.wrQLenPdf::52                       0                       # What write queue length does an incoming req see
system.mem_ctrl.wrQLenPdf::53                       0                       # What write queue length does an incoming req see
system.mem_ctrl.wrQLenPdf::54                       0                       # What write queue length does an incoming req see
system.mem_ctrl.wrQLenPdf::55                       0                       # What write queue length does an incoming req see
system.mem_ctrl.wrQLenPdf::56                       0                       # What write queue length does an incoming req see
system.mem_ctrl.wrQLenPdf::57                       0                       # What write queue length does an incoming req see
system.mem_ctrl.wrQLenPdf::58                       0                       # What write queue length does an incoming req see
system.mem_ctrl.wrQLenPdf::59                       0                       # What write queue length does an incoming req see
system.mem_ctrl.wrQLenPdf::60                       0                       # What write queue length does an incoming req see
system.mem_ctrl.wrQLenPdf::61                       0                       # What write queue length does an incoming req see
system.mem_ctrl.wrQLenPdf::62                       0                       # What write queue length does an incoming req see
system.mem_ctrl.wrQLenPdf::63                       0                       # What write queue length does an incoming req see
system.mem_ctrl.writeBursts                      6805                       # Number of DRAM write bursts, including those merged in the write queue
system.mem_ctrl.writePktSize::0                   263                       # Write request sizes (log2)
system.mem_ctrl.writePktSize::1                    10                       # Write request sizes (log2)
system.mem_ctrl.writePktSize::2                  2396                       # Write request sizes (log2)
system.mem_ctrl.writePktSize::3                  4136                       # Write request sizes (log2)
system.mem_ctrl.writePktSize::4                     0                       # Write request sizes (log2)
system.mem_ctrl.writePktSize::5                     0                       # Write request sizes (log2)
system.mem_ctrl.writePktSize::6                     0                       # Write request sizes (log2)
system.mem_ctrl.writeReqs                        6805                       # Number of write requests accepted
system.mem_ctrl.writeRowHitRate                 83.99                       # Row buffer hit rate for writes
system.mem_ctrl.writeRowHits                      236                       # Number of row buffer hits during writes
system.mem_ctrl_0.actBackEnergy            1556420910                       # Energy for active background per rank (pJ)
system.mem_ctrl_0.actEnergy                  24283140                       # Energy for activate commands per rank (pJ)
system.mem_ctrl_0.actPowerDownEnergy                0                       # Energy for active power-down per rank (pJ)
system.mem_ctrl_0.averagePower             614.316029                       # Core power per rank (mW)
system.mem_ctrl_0.memoryStateTime::IDLE      89070750                       # Time in different power states
system.mem_ctrl_0.memoryStateTime::REF      117260000                       # Time in different power states
system.mem_ctrl_0.memoryStateTime::SREF             0                       # Time in different power states
system.mem_ctrl_0.memoryStateTime::PRE_PDN            0                       # Time in different power states
system.mem_ctrl_0.memoryStateTime::ACT     3310376250                       # Time in different power states
system.mem_ctrl_0.memoryStateTime::ACT_PDN            0                       # Time in different power states
system.mem_ctrl_0.preBackEnergy              39745440                       # Energy for precharge background per rank (pJ)
system.mem_ctrl_0.preEnergy                  12895410                       # Energy for precharge commands per rank (pJ)
system.mem_ctrl_0.prePowerDownEnergy                0                       # Energy for precharge power-down per rank (pJ)
system.mem_ctrl_0.readEnergy                248736180                       # Energy for read commands per rank (pJ)
system.mem_ctrl_0.refreshEnergy          277202640.000000                       # Energy for refresh commands per rank (pJ)
system.mem_ctrl_0.selfRefreshEnergy                 0                       # Energy for self refresh per rank (pJ)
system.mem_ctrl_0.totalEnergy              2160369480                       # Total energy per rank (pJ)
system.mem_ctrl_0.totalIdleTime                     0                       # Total Idle time Per DRAM Rank
system.mem_ctrl_0.writeEnergy                 1085760                       # Energy for write commands per rank (pJ)
system.mem_ctrl_1.actBackEnergy            1004410110                       # Energy for active background per rank (pJ)
system.mem_ctrl_1.actEnergy                  18178440                       # Energy for activate commands per rank (pJ)
system.mem_ctrl_1.actPowerDownEnergy                0                       # Energy for active power-down per rank (pJ)
system.mem_ctrl_1.averagePower             575.322646                       # Core power per rank (mW)
system.mem_ctrl_1.memoryStateTime::IDLE    1296469250                       # Time in different power states
system.mem_ctrl_1.memoryStateTime::REF      117260000                       # Time in different power states
system.mem_ctrl_1.memoryStateTime::SREF             0                       # Time in different power states
system.mem_ctrl_1.memoryStateTime::PRE_PDN            0                       # Time in different power states
system.mem_ctrl_1.memoryStateTime::ACT     2102977750                       # Time in different power states
system.mem_ctrl_1.memoryStateTime::ACT_PDN            0                       # Time in different power states
system.mem_ctrl_1.preBackEnergy             504596640                       # Energy for precharge background per rank (pJ)
system.mem_ctrl_1.preEnergy                   9650685                       # Energy for precharge commands per rank (pJ)
system.mem_ctrl_1.prePowerDownEnergy                0                       # Energy for precharge power-down per rank (pJ)
system.mem_ctrl_1.readEnergy                208952100                       # Energy for read commands per rank (pJ)
system.mem_ctrl_1.refreshEnergy          277202640.000000                       # Energy for refresh commands per rank (pJ)
system.mem_ctrl_1.selfRefreshEnergy                 0                       # Energy for self refresh per rank (pJ)
system.mem_ctrl_1.totalEnergy              2023241175                       # Total energy per rank (pJ)
system.mem_ctrl_1.totalIdleTime                     0                       # Total Idle time Per DRAM Rank
system.mem_ctrl_1.writeEnergy                  250560                       # Energy for write commands per rank (pJ)
system.membus.pkt_count_system.cpu.icache_port::system.mem_ctrl.port       107096                       # Packet count per connected master and slave (bytes)
system.membus.pkt_count_system.cpu.icache_port::total       107096                       # Packet count per connected master and slave (bytes)
system.membus.pkt_count_system.cpu.dcache_port::system.mem_ctrl.port        37556                       # Packet count per connected master and slave (bytes)
system.membus.pkt_count_system.cpu.dcache_port::total        37556                       # Packet count per connected master and slave (bytes)
system.membus.pkt_count::total                 144652                       # Packet count per connected master and slave (bytes)
system.membus.pkt_size_system.cpu.icache_port::system.mem_ctrl.port       428384                       # Cumulative packet size per connected master and slave (bytes)
system.membus.pkt_size_system.cpu.icache_port::total       428384                       # Cumulative packet size per connected master and slave (bytes)
system.membus.pkt_size_system.cpu.dcache_port::system.mem_ctrl.port       114059                       # Cumulative packet size per connected master and slave (bytes)
system.membus.pkt_size_system.cpu.dcache_port::total       114059                       # Cumulative packet size per connected master and slave (bytes)
system.membus.pkt_size::total                  542443                       # Cumulative packet size per connected master and slave (bytes)
system.membus.pwrStateResidencyTicks::UNDEFINED   3516707000                       # Cumulative time (in ticks) in various power states
system.membus.reqLayer2.occupancy            79131000                       # Layer occupancy (ticks)
system.membus.reqLayer2.utilization               2.3                       # Layer utilization (%)
system.membus.respLayer0.occupancy          121548500                       # Layer occupancy (ticks)
system.membus.respLayer0.utilization              3.5                       # Layer utilization (%)
system.membus.respLayer1.occupancy           33914500                       # Layer occupancy (ticks)
system.membus.respLayer1.utilization              1.0                       # Layer utilization (%)
system.membus.snoopTraffic                          0                       # Total snoop traffic (bytes)
system.membus.snoop_fanout::samples             72326                       # Request fanout histogram
system.membus.snoop_fanout::mean                    0                       # Request fanout histogram
system.membus.snoop_fanout::stdev                   0                       # Request fanout histogram
system.membus.snoop_fanout::underflows              0      0.00%      0.00% # Request fanout histogram
system.membus.snoop_fanout::0                   72326    100.00%    100.00% # Request fanout histogram
system.membus.snoop_fanout::1                       0      0.00%    100.00% # Request fanout histogram
system.membus.snoop_fanout::overflows               0      0.00%    100.00% # Request fanout histogram
system.membus.snoop_fanout::min_value               0                       # Request fanout histogram
system.membus.snoop_fanout::max_value               0                       # Request fanout histogram
system.membus.snoop_fanout::total               72326                       # Request fanout histogram
system.membus.snoop_filter.hit_multi_requests            0                       # Number of requests hitting in the snoop filter with multiple (>1) holders of the requested data.
system.membus.snoop_filter.hit_multi_snoops            0                       # Number of snoops hitting in the snoop filter with multiple (>1) holders of the requested data.
system.membus.snoop_filter.hit_single_requests            0                       # Number of requests hitting in the snoop filter with a single holder of the requested data.
system.membus.snoop_filter.hit_single_snoops            0                       # Number of snoops hitting in the snoop filter with a single holder of the requested data.
system.membus.snoop_filter.tot_requests             0                       # Total number of requests made to the snoop filter.
system.membus.snoop_filter.tot_snoops               0                       # Total number of snoops made to the snoop filter.
system.membus.snoops                                0                       # Total snoops (count)
system.membus.trans_dist::ReadReq               65521                       # Transaction distribution
system.membus.trans_dist::ReadResp              65521                       # Transaction distribution
system.membus.trans_dist::WriteReq               6805                       # Transaction distribution
system.membus.trans_dist::WriteResp              6805                       # Transaction distribution

---------- End Simulation Statistics   ----------
