
---------- Begin Simulation Statistics ----------
final_tick                                  846506000                       # Number of ticks from beginning of simulation (restored from checkpoints and never reset)
host_inst_rate                                 171690                       # Simulator instruction rate (inst/s)
host_mem_usage                                 805468                       # Number of bytes of host memory used
host_op_rate                                   331831                       # Simulator op (including micro ops) rate (op/s)
host_seconds                                     0.06                       # Real time elapsed on the host
host_tick_rate                            14160515947                       # Simulator tick rate (ticks/s)
sim_freq                                 1000000000000                       # Frequency of simulated ticks
sim_insts                                       10233                       # Number of instructions simulated
sim_ops                                         19830                       # Number of ops (including micro ops) simulated
sim_seconds                                  0.000847                       # Number of seconds simulated
sim_ticks                                   846506000                       # Number of ticks simulated
system.clk_domain.clock                          1000                       # Clock period in ticks
system.clk_domain.voltage_domain.voltage            1                       # Voltage in Volts
system.cpu.Branches                              2152                       # Number of branches fetched
system.cpu.committedInsts                       10233                       # Number of instructions committed
system.cpu.committedOps                         19830                       # Number of ops (including micro ops) committed
system.cpu.dtb.rdAccesses                        2039                       # TLB accesses on read requests
system.cpu.dtb.rdMisses                            16                       # TLB misses on read requests
system.cpu.dtb.walker.pwrStateResidencyTicks::UNDEFINED    846506000                       # Cumulative time (in ticks) in various power states
system.cpu.dtb.wrAccesses                        1963                       # TLB accesses on write requests
system.cpu.dtb.wrMisses                             8                       # TLB misses on write requests
system.cpu.idle_fraction                     0.000000                       # Percentage of idle cycles
system.cpu.interrupts.clk_domain.clock          16000                       # Clock period in ticks
system.cpu.interrupts.pwrStateResidencyTicks::UNDEFINED    846506000                       # Cumulative time (in ticks) in various power states
system.cpu.itb.rdAccesses                           0                       # TLB accesses on read requests
system.cpu.itb.rdMisses                             0                       # TLB misses on read requests
system.cpu.itb.walker.pwrStateResidencyTicks::UNDEFINED    846506000                       # Cumulative time (in ticks) in various power states
system.cpu.itb.wrAccesses                       13448                       # TLB accesses on write requests
system.cpu.itb.wrMisses                            49                       # TLB misses on write requests
system.cpu.not_idle_fraction                 1.000000                       # Percentage of non-idle cycles
system.cpu.numCycles                           846506                       # number of cpu cycles simulated
system.cpu.numWorkItemsCompleted                    0                       # number of work items this cpu completed
system.cpu.numWorkItemsStarted                      0                       # number of work items this cpu started
system.cpu.num_busy_cycles               846505.999000                       # Number of busy cycles
system.cpu.num_cc_register_reads                11101                       # number of times the CC registers were read
system.cpu.num_cc_register_writes                6372                       # number of times the CC registers were written
system.cpu.num_conditional_control_insts         1683                       # number of instructions that are conditional controls
system.cpu.num_fp_alu_accesses                   1901                       # Number of float alu accesses
system.cpu.num_fp_insts                          1901                       # number of float instructions
system.cpu.num_fp_register_reads                 2604                       # number of times the floating registers were read
system.cpu.num_fp_register_writes                1373                       # number of times the floating registers were written
system.cpu.num_func_calls                         303                       # number of times a function call or return occured
system.cpu.num_idle_cycles                   0.001000                       # Number of idle cycles
system.cpu.num_int_alu_accesses                 18834                       # Number of integer alu accesses
system.cpu.num_int_insts                        18834                       # number of integer instructions
system.cpu.num_int_register_reads               35620                       # number of times the integer registers were read
system.cpu.num_int_register_writes              14419                       # number of times the integer registers were written
system.cpu.num_load_insts                        2036                       # Number of load instructions
system.cpu.num_mem_refs                          3999                       # number of memory refs
system.cpu.num_store_insts                       1963                       # Number of store instructions
system.cpu.num_vec_alu_accesses                     0                       # Number of vector alu accesses
system.cpu.num_vec_insts                            0                       # number of vector instructions
system.cpu.num_vec_register_reads                   0                       # number of times the vector registers were read
system.cpu.num_vec_register_writes                  0                       # number of times the vector registers were written
system.cpu.op_class::No_OpClass                    73      0.37%      0.37% # Class of executed instruction
system.cpu.op_class::IntAlu                     14624     73.75%     74.11% # Class of executed instruction
system.cpu.op_class::IntMult                       11      0.06%     74.17% # Class of executed instruction
system.cpu.op_class::IntDiv                        56      0.28%     74.45% # Class of executed instruction
system.cpu.op_class::FloatAdd                     112      0.56%     75.02% # Class of executed instruction
system.cpu.op_class::FloatCmp                       0      0.00%     75.02% # Class of executed instruction
system.cpu.op_class::FloatCvt                       0      0.00%     75.02% # Class of executed instruction
system.cpu.op_class::FloatMult                      0      0.00%     75.02% # Class of executed instruction
system.cpu.op_class::FloatMultAcc                   0      0.00%     75.02% # Class of executed instruction
system.cpu.op_class::FloatDiv                       0      0.00%     75.02% # Class of executed instruction
system.cpu.op_class::FloatMisc                      0      0.00%     75.02% # Class of executed instruction
system.cpu.op_class::FloatSqrt                      0      0.00%     75.02% # Class of executed instruction
system.cpu.op_class::SimdAdd                        0      0.00%     75.02% # Class of executed instruction
system.cpu.op_class::SimdAddAcc                     0      0.00%     75.02% # Class of executed instruction
system.cpu.op_class::SimdAlu                      286      1.44%     76.46% # Class of executed instruction
system.cpu.op_class::SimdCmp                        0      0.00%     76.46% # Class of executed instruction
system.cpu.op_class::SimdCvt                       54      0.27%     76.73% # Class of executed instruction
system.cpu.op_class::SimdMisc                     213      1.07%     77.81% # Class of executed instruction
system.cpu.op_class::SimdMult                       0      0.00%     77.81% # Class of executed instruction
system.cpu.op_class::SimdMultAcc                    0      0.00%     77.81% # Class of executed instruction
system.cpu.op_class::SimdShift                      0      0.00%     77.81% # Class of executed instruction
system.cpu.op_class::SimdShiftAcc                   0      0.00%     77.81% # Class of executed instruction
system.cpu.op_class::SimdDiv                        0      0.00%     77.81% # Class of executed instruction
system.cpu.op_class::SimdSqrt                       0      0.00%     77.81% # Class of executed instruction
system.cpu.op_class::SimdFloatAdd                 200      1.01%     78.81% # Class of executed instruction
system.cpu.op_class::SimdFloatAlu                   0      0.00%     78.81% # Class of executed instruction
system.cpu.op_class::SimdFloatCmp                   0      0.00%     78.81% # Class of executed instruction
system.cpu.op_class::SimdFloatCvt                 102      0.51%     79.33% # Class of executed instruction
system.cpu.op_class::SimdFloatDiv                   0      0.00%     79.33% # Class of executed instruction
system.cpu.op_class::SimdFloatMisc                  0      0.00%     79.33% # Class of executed instruction
system.cpu.op_class::SimdFloatMult                100      0.50%     79.83% # Class of executed instruction
system.cpu.op_class::SimdFloatMultAcc               0      0.00%     79.83% # Class of executed instruction
system.cpu.op_class::SimdFloatSqrt                  0      0.00%     79.83% # Class of executed instruction
system.cpu.op_class::SimdReduceAdd                  0      0.00%     79.83% # Class of executed instruction
system.cpu.op_class::SimdReduceAlu                  0      0.00%     79.83% # Class of executed instruction
system.cpu.op_class::SimdReduceCmp                  0      0.00%     79.83% # Class of executed instruction
system.cpu.op_class::SimdFloatReduceAdd             0      0.00%     79.83% # Class of executed instruction
system.cpu.op_class::SimdFloatReduceCmp             0      0.00%     79.83% # Class of executed instruction
system.cpu.op_class::SimdAes                        0      0.00%     79.83% # Class of executed instruction
system.cpu.op_class::SimdAesMix                     0      0.00%     79.83% # Class of executed instruction
system.cpu.op_class::SimdSha1Hash                   0      0.00%     79.83% # Class of executed instruction
system.cpu.op_class::SimdSha1Hash2                  0      0.00%     79.83% # Class of executed instruction
system.cpu.op_class::SimdSha256Hash                 0      0.00%     79.83% # Class of executed instruction
system.cpu.op_class::SimdSha256Hash2                0      0.00%     79.83% # Class of executed instruction
system.cpu.op_class::SimdShaSigma2                  0      0.00%     79.83% # Class of executed instruction
system.cpu.op_class::SimdShaSigma3                  0      0.00%     79.83% # Class of executed instruction
system.cpu.op_class::SimdPredAlu                    0      0.00%     79.83% # Class of executed instruction
system.cpu.op_class::MemRead                     1689      8.52%     88.35% # Class of executed instruction
system.cpu.op_class::MemWrite                    1494      7.53%     95.89% # Class of executed instruction
system.cpu.op_class::FloatMemRead                 347      1.75%     97.63% # Class of executed instruction
system.cpu.op_class::FloatMemWrite                469      2.37%    100.00% # Class of executed instruction
system.cpu.op_class::IprAccess                      0      0.00%    100.00% # Class of executed instruction
system.cpu.op_class::InstPrefetch                   0      0.00%    100.00% # Class of executed instruction
system.cpu.op_class::total                      19830                       # Class of executed instruction
system.cpu.pwrStateResidencyTicks::ON       846506000                       # Cumulative time (in ticks) in various power states
system.cpu.workload.numSyscalls                    11                       # Number of system calls
system.mem_ctrl.avgBusLat                     5000.00                       # Average bus latency per DRAM burst
system.mem_ctrl.avgGap                       48503.15                       # Average gap between requests
system.mem_ctrl.avgMemAccLat                 22319.01                       # Average memory access latency per DRAM burst
system.mem_ctrl.avgPriority_.cpu.inst::samples     13448.00                       # Average QoS priority value for accepted requests
system.mem_ctrl.avgPriority_.cpu.data::samples      2010.00                       # Average QoS priority value for accepted requests
system.mem_ctrl.avgQLat                       3569.01                       # Average queueing delay per DRAM burst
system.mem_ctrl.avgRdBW                       1149.57                       # Average DRAM read bandwidth in MiByte/s
system.mem_ctrl.avgRdBWSys                     143.83                       # Average system read bandwidth in MiByte/s
system.mem_ctrl.avgRdQLen                        1.00                       # Average read queue length when enqueuing
system.mem_ctrl.avgWrBW                         16.94                       # Average achieved write bandwidth in MiByte/s
system.mem_ctrl.avgWrBWSys                      17.10                       # Average system write bandwidth in MiByte/s
system.mem_ctrl.avgWrQLen                       24.12                       # Average write queue length when enqueuing
system.mem_ctrl.busUtil                          9.11                       # Data bus utilization in percentage
system.mem_ctrl.busUtilRead                      8.98                       # Data bus utilization in percentage for reads
system.mem_ctrl.busUtilWrite                     0.13                       # Data bus utilization in percentage for writes
system.mem_ctrl.bw_inst_read::.cpu.inst     127091834                       # Instruction read bandwidth from this memory (bytes/s)
system.mem_ctrl.bw_inst_read::total         127091834                       # Instruction read bandwidth from this memory (bytes/s)
system.mem_ctrl.bw_read::.cpu.inst          127091834                       # Total read bandwidth from this memory (bytes/s)
system.mem_ctrl.bw_read::.cpu.data           16740578                       # Total read bandwidth from this memory (bytes/s)
system.mem_ctrl.bw_read::total              143832412                       # Total read bandwidth from this memory (bytes/s)
system.mem_ctrl.bw_total::.cpu.inst         127091834                       # Total bandwidth to/from this memory (bytes/s)
system.mem_ctrl.bw_total::.cpu.data          33843824                       # Total bandwidth to/from this memory (bytes/s)
system.mem_ctrl.bw_total::total             160935658                       # Total bandwidth to/from this memory (bytes/s)
system.mem_ctrl.bw_write::.cpu.data          17103246                       # Write bandwidth from this memory (bytes/s)
system.mem_ctrl.bw_write::total              17103246                       # Write bandwidth from this memory (bytes/s)
system.mem_ctrl.bytesPerActivate::samples         1574                       # Bytes accessed per row activation
system.mem_ctrl.bytesPerActivate::mean     626.256671                       # Bytes accessed per row activation
system.mem_ctrl.bytesPerActivate::gmean    406.295307                       # Bytes accessed per row activation
system.mem_ctrl.bytesPerActivate::stdev    411.861203                       # Bytes accessed per row activation
system.mem_ctrl.bytesPerActivate::0-127           327     20.78%     20.78% # Bytes accessed per row activation
system.mem_ctrl.bytesPerActivate::128-255          133      8.45%     29.22% # Bytes accessed per row activation
system.mem_ctrl.bytesPerActivate::256-383           99      6.29%     35.51% # Bytes accessed per row activation
system.mem_ctrl.bytesPerActivate::384-511           83      5.27%     40.79% # Bytes accessed per row activation
system.mem_ctrl.bytesPerActivate::512-639           75      4.76%     45.55% # Bytes accessed per row activation
system.mem_ctrl.bytesPerActivate::640-767           68      4.32%     49.87% # Bytes accessed per row activation
system.mem_ctrl.bytesPerActivate::768-895           35      2.22%     52.10% # Bytes accessed per row activation
system.mem_ctrl.bytesPerActivate::896-1023           45      2.86%     54.96% # Bytes accessed per row activation
system.mem_ctrl.bytesPerActivate::1024-1151          709     45.04%    100.00% # Bytes accessed per row activation
system.mem_ctrl.bytesPerActivate::total          1574                       # Bytes accessed per row activation
system.mem_ctrl.bytesReadDRAM                  973120                       # Total number of bytes read from DRAM
system.mem_ctrl.bytesReadSys                   121755                       # Total read bytes from the system interface side
system.mem_ctrl.bytesReadWrQ                    18048                       # Total number of bytes read from write queue
system.mem_ctrl.bytesWritten                    14336                       # Total number of bytes written to DRAM
system.mem_ctrl.bytesWrittenSys                 14478                       # Total written bytes from the system interface side
system.mem_ctrl.bytes_inst_read::.cpu.inst       107584                       # Number of instructions bytes read from this memory
system.mem_ctrl.bytes_inst_read::total         107584                       # Number of instructions bytes read from this memory
system.mem_ctrl.bytes_read::.cpu.inst          107584                       # Number of bytes read from this memory
system.mem_ctrl.bytes_read::.cpu.data           14171                       # Number of bytes read from this memory
system.mem_ctrl.bytes_read::total              121755                       # Number of bytes read from this memory
system.mem_ctrl.bytes_written::.cpu.data        14478                       # Number of bytes written to this memory
system.mem_ctrl.bytes_written::total            14478                       # Number of bytes written to this memory
system.mem_ctrl.masterReadAccesses::.cpu.inst        13448                       # Per-master read serviced memory accesses
system.mem_ctrl.masterReadAccesses::.cpu.data         2039                       # Per-master read serviced memory accesses
system.mem_ctrl.masterReadAvgLat::.cpu.inst     22004.44                       # Per-master read average memory access latency
system.mem_ctrl.masterReadAvgLat::.cpu.data     21306.89                       # Per-master read average memory access latency
system.mem_ctrl.masterReadBytes::.cpu.inst       107584                       # Per-master bytes read from memory
system.mem_ctrl.masterReadBytes::.cpu.data        12245                       # Per-master bytes read from memory
system.mem_ctrl.masterReadRate::.cpu.inst 127091833.962192818522                       # Per-master bytes read from memory rate (Bytes/sec)
system.mem_ctrl.masterReadRate::.cpu.data 14465343.423437045887                       # Per-master bytes read from memory rate (Bytes/sec)
system.mem_ctrl.masterReadTotalLat::.cpu.inst    295915750                       # Per-master read total memory access latency
system.mem_ctrl.masterReadTotalLat::.cpu.data     43444750                       # Per-master read total memory access latency
system.mem_ctrl.masterWriteAccesses::.cpu.data         1963                       # Per-master write serviced memory accesses
system.mem_ctrl.masterWriteAvgLat::.cpu.data   7973871.37                       # Per-master write average memory access latency
system.mem_ctrl.masterWriteBytes::.cpu.data         1671                       # Per-master bytes write to memory
system.mem_ctrl.masterWriteRate::.cpu.data 1973996.640307333786                       # Per-master bytes write to memory rate (Bytes/sec)
system.mem_ctrl.masterWriteTotalLat::.cpu.data  15652709500                       # Per-master write total memory access latency
system.mem_ctrl.mergedWrBursts                   1710                       # Number of DRAM write bursts merged with an existing one
system.mem_ctrl.neitherReadNorWriteReqs             0                       # Number of requests that are neither read nor write
system.mem_ctrl.numRdRetry                          0                       # Number of times read queue was full causing retry
system.mem_ctrl.numReadWriteTurnArounds            14                       # Number of turnarounds from READ to WRITE
system.mem_ctrl.numStayReadState                32574                       # Number of times bus staying in READ state
system.mem_ctrl.numStayWriteState                 210                       # Number of times bus staying in WRITE state
system.mem_ctrl.numWrRetry                          0                       # Number of times write queue was full causing retry
system.mem_ctrl.numWriteReadTurnArounds            14                       # Number of turnarounds from WRITE to READ
system.mem_ctrl.num_reads::.cpu.inst            13448                       # Number of read requests responded to by this memory
system.mem_ctrl.num_reads::.cpu.data             2039                       # Number of read requests responded to by this memory
system.mem_ctrl.num_reads::total                15487                       # Number of read requests responded to by this memory
system.mem_ctrl.num_writes::.cpu.data            1963                       # Number of write requests responded to by this memory
system.mem_ctrl.num_writes::total                1963                       # Number of write requests responded to by this memory
system.mem_ctrl.pageHitRate                     89.60                       # Row buffer hit rate, read and write combined
system.mem_ctrl.peakBW                       12800.00                       # Theoretical peak bandwidth in MiByte/s
system.mem_ctrl.perBankRdBursts::0               3097                       # Per bank write bursts
system.mem_ctrl.perBankRdBursts::1               1333                       # Per bank write bursts
system.mem_ctrl.perBankRdBursts::2                282                       # Per bank write bursts
system.mem_ctrl.perBankRdBursts::3                437                       # Per bank write bursts
system.mem_ctrl.perBankRdBursts::4                  0                       # Per bank write bursts
system.mem_ctrl.perBankRdBursts::5                271                       # Per bank write bursts
system.mem_ctrl.perBankRdBursts::6                319                       # Per bank write bursts
system.mem_ctrl.perBankRdBursts::7               1416                       # Per bank write bursts
system.mem_ctrl.perBankRdBursts::8                246                       # Per bank write bursts
system.mem_ctrl.perBankRdBursts::9               1358                       # Per bank write bursts
system.mem_ctrl.perBankRdBursts::10               795                       # Per bank write bursts
system.mem_ctrl.perBankRdBursts::11               571                       # Per bank write bursts
system.mem_ctrl.perBankRdBursts::12              3062                       # Per bank write bursts
system.mem_ctrl.perBankRdBursts::13              1239                       # Per bank write bursts
system.mem_ctrl.perBankRdBursts::14               370                       # Per bank write bursts
system.mem_ctrl.perBankRdBursts::15               409                       # Per bank write bursts
system.mem_ctrl.perBankWrBursts::0                  0                       # Per bank write bursts
system.mem_ctrl.perBankWrBursts::1                  0                       # Per bank write bursts
system.mem_ctrl.perBankWrBursts::2                  0                       # Per bank write bursts
system.mem_ctrl.perBankWrBursts::3                  0                       # Per bank write bursts
system.mem_ctrl.perBankWrBursts::4                  0                       # Per bank write bursts
system.mem_ctrl.perBankWrBursts::5                 55                       # Per bank write bursts
system.mem_ctrl.perBankWrBursts::6                 35                       # Per bank write bursts
system.mem_ctrl.perBankWrBursts::7                 87                       # Per bank write bursts
system.mem_ctrl.perBankWrBursts::8                  5                       # Per bank write bursts
system.mem_ctrl.perBankWrBursts::9                 42                       # Per bank write bursts
system.mem_ctrl.perBankWrBursts::10                 0                       # Per bank write bursts
system.mem_ctrl.perBankWrBursts::11                 0                       # Per bank write bursts
system.mem_ctrl.perBankWrBursts::12                 0                       # Per bank write bursts
system.mem_ctrl.perBankWrBursts::13                 0                       # Per bank write bursts
system.mem_ctrl.perBankWrBursts::14                 0                       # Per bank write bursts
system.mem_ctrl.perBankWrBursts::15                 0                       # Per bank write bursts
system.mem_ctrl.priorityMaxLatency       0.000597318750                       # per QoS priority maximum request to response latency (s)
system.mem_ctrl.priorityMinLatency       0.000000018750                       # per QoS priority minimum request to response latency (s)
system.mem_ctrl.pwrStateResidencyTicks::UNDEFINED    846506000                       # Cumulative time (in ticks) in various power states
system.mem_ctrl.rdPerTurnAround::samples           14                       # Reads before turning the bus around for writes
system.mem_ctrl.rdPerTurnAround::mean     1056.357143                       # Reads before turning the bus around for writes
system.mem_ctrl.rdPerTurnAround::gmean     776.234039                       # Reads before turning the bus around for writes
system.mem_ctrl.rdPerTurnAround::stdev    1078.490584                       # Reads before turning the bus around for writes
system.mem_ctrl.rdPerTurnAround::0-255              1      7.14%      7.14% # Reads before turning the bus around for writes
system.mem_ctrl.rdPerTurnAround::256-511            4     28.57%     35.71% # Reads before turning the bus around for writes
system.mem_ctrl.rdPerTurnAround::512-767            3     21.43%     57.14% # Reads before turning the bus around for writes
system.mem_ctrl.rdPerTurnAround::768-1023            2     14.29%     71.43% # Reads before turning the bus around for writes
system.mem_ctrl.rdPerTurnAround::1024-1279            1      7.14%     78.57% # Reads before turning the bus around for writes
system.mem_ctrl.rdPerTurnAround::1280-1535            1      7.14%     85.71% # Reads before turning the bus around for writes
system.mem_ctrl.rdPerTurnAround::1792-2047            1      7.14%     92.86% # Reads before turning the bus around for writes
system.mem_ctrl.rdPerTurnAround::4352-4607            1      7.14%    100.00% # Reads before turning the bus around for writes
system.mem_ctrl.rdPerTurnAround::total             14                       # Reads before turning the bus around for writes
system.mem_ctrl.rdQLenPdf::0                    15202                       # What read queue length does an incoming req see
system.mem_ctrl.rdQLenPdf::1                        3                       # What read queue length does an incoming req see
system.mem_ctrl.rdQLenPdf::2                        0                       # What read queue length does an incoming req see
system.mem_ctrl.rdQLenPdf::3                        0                       # What read queue length does an incoming req see
system.mem_ctrl.rdQLenPdf::4                        0                       # What read queue length does an incoming req see
system.mem_ctrl.rdQLenPdf::5                        0                       # What read queue length does an incoming req see
system.mem_ctrl.rdQLenPdf::6                        0                       # What read queue length does an incoming req see
system.mem_ctrl.rdQLenPdf::7                        0                       # What read queue length does an incoming req see
system.mem_ctrl.rdQLenPdf::8                        0                       # What read queue length does an incoming req see
system.mem_ctrl.rdQLenPdf::9                        0                       # What read queue length does an incoming req see
system.mem_ctrl.rdQLenPdf::10                       0                       # What read queue length does an incoming req see
system.mem_ctrl.rdQLenPdf::11                       0                       # What read queue length does an incoming req see
system.mem_ctrl.rdQLenPdf::12                       0                       # What read queue length does an incoming req see
system.mem_ctrl.rdQLenPdf::13                       0                       # What read queue length does an incoming req see
system.mem_ctrl.rdQLenPdf::14                       0                       # What read queue length does an incoming req see
system.mem_ctrl.rdQLenPdf::15                       0                       # What read queue length does an incoming req see
system.mem_ctrl.rdQLenPdf::16                       0                       # What read queue length does an incoming req see
system.mem_ctrl.rdQLenPdf::17                       0                       # What read queue length does an incoming req see
system.mem_ctrl.rdQLenPdf::18                       0                       # What read queue length does an incoming req see
system.mem_ctrl.rdQLenPdf::19                       0                       # What read queue length does an incoming req see
system.mem_ctrl.rdQLenPdf::20                       0                       # What read queue length does an incoming req see
system.mem_ctrl.rdQLenPdf::21                       0                       # What read queue length does an incoming req see
system.mem_ctrl.rdQLenPdf::22                       0                       # What read queue length does an incoming req see
system.mem_ctrl.rdQLenPdf::23                       0                       # What read queue length does an incoming req see
system.mem_ctrl.rdQLenPdf::24                       0                       # What read queue length does an incoming req see
system.mem_ctrl.rdQLenPdf::25                       0                       # What read queue length does an incoming req see
system.mem_ctrl.rdQLenPdf::26                       0                       # What read queue length does an incoming req see
system.mem_ctrl.rdQLenPdf::27                       0                       # What read queue length does an incoming req see
system.mem_ctrl.rdQLenPdf::28                       0                       # What read queue length does an incoming req see
system.mem_ctrl.rdQLenPdf::29                       0                       # What read queue length does an incoming req see
system.mem_ctrl.rdQLenPdf::30                       0                       # What read queue length does an incoming req see
system.mem_ctrl.rdQLenPdf::31                       0                       # What read queue length does an incoming req see
system.mem_ctrl.readBursts                      15487                       # Number of DRAM read bursts, including those serviced by the write queue
system.mem_ctrl.readPktSize::0                    107                       # Read request sizes (log2)
system.mem_ctrl.readPktSize::1                     16                       # Read request sizes (log2)
system.mem_ctrl.readPktSize::2                    323                       # Read request sizes (log2)
system.mem_ctrl.readPktSize::3                  15041                       # Read request sizes (log2)
system.mem_ctrl.readPktSize::4                      0                       # Read request sizes (log2)
system.mem_ctrl.readPktSize::5                      0                       # Read request sizes (log2)
system.mem_ctrl.readPktSize::6                      0                       # Read request sizes (log2)
system.mem_ctrl.readReqs                        15487                       # Number of read requests accepted
system.mem_ctrl.readRowHitRate                  89.75                       # Row buffer hit rate for reads
system.mem_ctrl.readRowHits                     13646                       # Number of row buffer hits during reads
system.mem_ctrl.servicedByWrQ                     282                       # Number of DRAM read bursts serviced by the write queue
system.mem_ctrl.totBusLat                    76025000                       # Total ticks spent in databus transfers
system.mem_ctrl.totGap                      846380000                       # Total gap between requests
system.mem_ctrl.totMemAccLat                339360500                       # Total ticks spent from burst creation until serviced by the DRAM
system.mem_ctrl.totQLat                      54266750                       # Total ticks spent queuing
system.mem_ctrl.wrPerTurnAround::samples           14                       # Writes before turning the bus around for reads
system.mem_ctrl.wrPerTurnAround::mean              16                       # Writes before turning the bus around for reads
system.mem_ctrl.wrPerTurnAround::gmean      16.000000                       # Writes before turning the bus around for reads
system.mem_ctrl.wrPerTurnAround::16                14    100.00%    100.00% # Writes before turning the bus around for reads
system.mem_ctrl.wrPerTurnAround::total             14                       # Writes before turning the bus around for reads
system.mem_ctrl.wrQLenPdf::0                        1                       # What write queue length does an incoming req see
system.mem_ctrl.wrQLenPdf::1                        1                       # What write queue length does an incoming req see
system.mem_ctrl.wrQLenPdf::2                        1                       # What write queue length does an incoming req see
system.mem_ctrl.wrQLenPdf::3                        1                       # What write queue length does an incoming req see
system.mem_ctrl.wrQLenPdf::4                        1                       # What write queue length does an incoming req see
system.mem_ctrl.wrQLenPdf::5                        1                       # What write queue length does an incoming req see
system.mem_ctrl.wrQLenPdf::6                        1                       # What write queue length does an incoming req see
system.mem_ctrl.wrQLenPdf::7                        1                       # What write queue length does an incoming req see
system.mem_ctrl.wrQLenPdf::8                        1                       # What write queue length does an incoming req see
system.mem_ctrl.wrQLenPdf::9                        1                       # What write queue length does an incoming req see
system.mem_ctrl.wrQLenPdf::10                       1                       # What write queue length does an incoming req see
system.mem_ctrl.wrQLenPdf::11                       1                       # What write queue length does an incoming req see
system.mem_ctrl.wrQLenPdf::12                       1                       # What write queue length does an incoming req see
system.mem_ctrl.wrQLenPdf::13                       1                       # What write queue length does an incoming req see
system.mem_ctrl.wrQLenPdf::14                       1                       # What write queue length does an incoming req see
system.mem_ctrl.wrQLenPdf::15                       1                       # What write queue length does an incoming req see
system.mem_ctrl.wrQLenPdf::16                       1                       # What write queue length does an incoming req see
system.mem_ctrl.wrQLenPdf::17                      15                       # What write queue length does an incoming req see
system.mem_ctrl.wrQLenPdf::18                      15                       # What write queue length does an incoming req see
system.mem_ctrl.wrQLenPdf::19                      15                       # What write queue length does an incoming req see
system.mem_ctrl.wrQLenPdf::20                      15                       # What write queue length does an incoming req see
system.mem_ctrl.wrQLenPdf::21                      15                       # What write queue length does an incoming req see
system.mem_ctrl.wrQLenPdf::22                      15                       # What write queue length does an incoming req see
system.mem_ctrl.wrQLenPdf::23                      15                       # What write queue length does an incoming req see
system.mem_ctrl.wrQLenPdf::24                      15                       # What write queue length does an incoming req see
system.mem_ctrl.wrQLenPdf::25                      15                       # What write queue length does an incoming req see
system.mem_ctrl.wrQLenPdf::26                      15                       # What write queue length does an incoming req see
system.mem_ctrl.wrQLenPdf::27                      15                       # What write queue length does an incoming req see
system.mem_ctrl.wrQLenPdf::28                      15                       # What write queue length does an incoming req see
system.mem_ctrl.wrQLenPdf::29                      14                       # What write queue length does an incoming req see
system.mem_ctrl.wrQLenPdf::30                      14                       # What write queue length does an incoming req see
system.mem_ctrl.wrQLenPdf::31                      14                       # What write queue length does an incoming req see
system.mem_ctrl.wrQLenPdf::32                      14                       # What write queue length does an incoming req see
system.mem_ctrl.wrQLenPdf::33                       0                       # What write queue length does an incoming req see
system.mem_ctrl.wrQLenPdf::34                       0                       # What write queue length does an incoming req see
system.mem_ctrl.wrQLenPdf::35                       0                       # What write queue length does an incoming req see
system.mem_ctrl.wrQLenPdf::36                       0                       # What write queue length does an incoming req see
system.mem_ctrl.wrQLenPdf::37                       0                       # What write queue length does an incoming req see
system.mem_ctrl.wrQLenPdf::38                       0                       # What write queue length does an incoming req see
system.mem_ctrl.wrQLenPdf::39                       0                       # What write queue length does an incoming req see
system.mem_ctrl.wrQLenPdf::40                       0                       # What write queue length does an incoming req see
system.mem_ctrl.wrQLenPdf::41                       0                       # What write queue length does an incoming req see
system.mem_ctrl.wrQLenPdf::42                       0                       # What write queue length does an incoming req see
system.mem_ctrl.wrQLenPdf::43                       0                       # What write queue length does an incoming req see
system.mem_ctrl.wrQLenPdf::44                       0                       # What write queue length does an incoming req see
system.mem_ctrl.wrQLenPdf::45                       0                       # What write queue length does an incoming req see
system.mem_ctrl.wrQLenPdf::46                       0                       # What write queue length does an incoming req see
system.mem_ctrl.wrQLenPdf::47                       0                       # What write queue length does an incoming req see
system.mem_ctrl.wrQLenPdf::48                       0                       # What write queue length does an incoming req see
system.mem_ctrl.wrQLenPdf::49                       0                       # What write queue length does an incoming req see
system.mem_ctrl.wrQLenPdf::50                       0                       # What write queue length does an incoming req see
system.mem_ctrl.wrQLenPdf::51                       0                       # What write queue length does an incoming req see
system.mem_ctrl.wrQLenPdf::52                       0                       # What write queue length does an incoming req see
system.mem_ctrl.wrQLenPdf::53                       0                       # What write queue length does an incoming req see
system.mem_ctrl.wrQLenPdf::54                       0                       # What write queue length does an incoming req see
system.mem_ctrl.wrQLenPdf::55                       0                       # What write queue length does an incoming req see
system.mem_ctrl.wrQLenPdf::56                       0                       # What write queue length does an incoming req see
system.mem_ctrl.wrQLenPdf::57                       0                       # What write queue length does an incoming req see
system.mem_ctrl.wrQLenPdf::58                       0                       # What write queue length does an incoming req see
system.mem_ctrl.wrQLenPdf::59                       0                       # What write queue length does an incoming req see
system.mem_ctrl.wrQLenPdf::60                       0                       # What write queue length does an incoming req see
system.mem_ctrl.wrQLenPdf::61                       0                       # What write queue length does an incoming req see
system.mem_ctrl.wrQLenPdf::62                       0                       # What write queue length does an incoming req see
system.mem_ctrl.wrQLenPdf::63                       0                       # What write queue length does an incoming req see
system.mem_ctrl.writeBursts                      1963                       # Number of DRAM write bursts, including those merged in the write queue
system.mem_ctrl.writePktSize::0                    50                       # Write request sizes (log2)
system.mem_ctrl.writePktSize::1                     6                       # Write request sizes (log2)
system.mem_ctrl.writePktSize::2                   210                       # Write request sizes (log2)
system.mem_ctrl.writePktSize::3                  1697                       # Write request sizes (log2)
system.mem_ctrl.writePktSize::4                     0                       # Write request sizes (log2)
system.mem_ctrl.writePktSize::5                     0                       # Write request sizes (log2)
system.mem_ctrl.writePktSize::6                     0                       # Write request sizes (log2)
system.mem_ctrl.writeReqs                        1963                       # Number of write requests accepted
system.mem_ctrl.writeRowHitRate                 80.63                       # Row buffer hit rate for writes
system.mem_ctrl.writeRowHits                      204                       # Number of row buffer hits during writes
system.mem_ctrl_0.actBackEnergy             308446380                       # Energy for active background per rank (pJ)
system.mem_ctrl_0.actEnergy                   5761980                       # Energy for activate commands per rank (pJ)
system.mem_ctrl_0.actPowerDownEnergy                0                       # Energy for active power-down per rank (pJ)
system.mem_ctrl_0.averagePower             591.803697                       # Core power per rank (mW)
system.mem_ctrl_0.memoryStateTime::IDLE     166147000                       # Time in different power states
system.mem_ctrl_0.memoryStateTime::REF       28080000                       # Time in different power states
system.mem_ctrl_0.memoryStateTime::SREF             0                       # Time in different power states
system.mem_ctrl_0.memoryStateTime::PRE_PDN            0                       # Time in different power states
system.mem_ctrl_0.memoryStateTime::ACT      652279000                       # Time in different power states
system.mem_ctrl_0.memoryStateTime::ACT_PDN            0                       # Time in different power states
system.mem_ctrl_0.preBackEnergy              65314080                       # Energy for precharge background per rank (pJ)
system.mem_ctrl_0.preEnergy                   3051180                       # Energy for precharge commands per rank (pJ)
system.mem_ctrl_0.prePowerDownEnergy                0                       # Energy for precharge power-down per rank (pJ)
system.mem_ctrl_0.readEnergy                 51086700                       # Energy for read commands per rank (pJ)
system.mem_ctrl_0.refreshEnergy          66381120.000000                       # Energy for refresh commands per rank (pJ)
system.mem_ctrl_0.selfRefreshEnergy                 0                       # Energy for self refresh per rank (pJ)
system.mem_ctrl_0.totalEnergy               500965380                       # Total energy per rank (pJ)
system.mem_ctrl_0.totalIdleTime                     0                       # Total Idle time Per DRAM Rank
system.mem_ctrl_0.writeEnergy                  923940                       # Energy for write commands per rank (pJ)
system.mem_ctrl_1.actBackEnergy             262369290                       # Energy for active background per rank (pJ)
system.mem_ctrl_1.actEnergy                   5512080                       # Energy for activate commands per rank (pJ)
system.mem_ctrl_1.actPowerDownEnergy                0                       # Energy for active power-down per rank (pJ)
system.mem_ctrl_1.averagePower             589.508899                       # Core power per rank (mW)
system.mem_ctrl_1.memoryStateTime::IDLE     266573500                       # Time in different power states
system.mem_ctrl_1.memoryStateTime::REF       28080000                       # Time in different power states
system.mem_ctrl_1.memoryStateTime::SREF             0                       # Time in different power states
system.mem_ctrl_1.memoryStateTime::PRE_PDN            0                       # Time in different power states
system.mem_ctrl_1.memoryStateTime::ACT      551852500                       # Time in different power states
system.mem_ctrl_1.memoryStateTime::ACT_PDN            0                       # Time in different power states
system.mem_ctrl_1.preBackEnergy             104115840                       # Energy for precharge background per rank (pJ)
system.mem_ctrl_1.preEnergy                   2922150                       # Energy for precharge commands per rank (pJ)
system.mem_ctrl_1.prePowerDownEnergy                0                       # Energy for precharge power-down per rank (pJ)
system.mem_ctrl_1.readEnergy                 57477000                       # Energy for read commands per rank (pJ)
system.mem_ctrl_1.refreshEnergy          66381120.000000                       # Energy for refresh commands per rank (pJ)
system.mem_ctrl_1.selfRefreshEnergy                 0                       # Energy for self refresh per rank (pJ)
system.mem_ctrl_1.totalEnergy               499022820                       # Total energy per rank (pJ)
system.mem_ctrl_1.totalIdleTime                     0                       # Total Idle time Per DRAM Rank
system.mem_ctrl_1.writeEnergy                  245340                       # Energy for write commands per rank (pJ)
system.membus.pkt_count_system.cpu.icache_port::system.mem_ctrl.port        26896                       # Packet count per connected master and slave (bytes)
system.membus.pkt_count_system.cpu.icache_port::total        26896                       # Packet count per connected master and slave (bytes)
system.membus.pkt_count_system.cpu.dcache_port::system.mem_ctrl.port         8004                       # Packet count per connected master and slave (bytes)
system.membus.pkt_count_system.cpu.dcache_port::total         8004                       # Packet count per connected master and slave (bytes)
system.membus.pkt_count::total                  34900                       # Packet count per connected master and slave (bytes)
system.membus.pkt_size_system.cpu.icache_port::system.mem_ctrl.port       107584                       # Cumulative packet size per connected master and slave (bytes)
system.membus.pkt_size_system.cpu.icache_port::total       107584                       # Cumulative packet size per connected master and slave (bytes)
system.membus.pkt_size_system.cpu.dcache_port::system.mem_ctrl.port        28649                       # Cumulative packet size per connected master and slave (bytes)
system.membus.pkt_size_system.cpu.dcache_port::total        28649                       # Cumulative packet size per connected master and slave (bytes)
system.membus.pkt_size::total                  136233                       # Cumulative packet size per connected master and slave (bytes)
system.membus.pwrStateResidencyTicks::UNDEFINED    846506000                       # Cumulative time (in ticks) in various power states
system.membus.reqLayer2.occupancy            19413000                       # Layer occupancy (ticks)
system.membus.reqLayer2.utilization               2.3                       # Layer utilization (%)
system.membus.respLayer0.occupancy           30581250                       # Layer occupancy (ticks)
system.membus.respLayer0.utilization              3.6                       # Layer utilization (%)
system.membus.respLayer1.occupancy            6632250                       # Layer occupancy (ticks)
system.membus.respLayer1.utilization              0.8                       # Layer utilization (%)
system.membus.snoopTraffic                          0                       # Total snoop traffic (bytes)
system.membus.snoop_fanout::samples             17450                       # Request fanout histogram
system.membus.snoop_fanout::mean                    0                       # Request fanout histogram
system.membus.snoop_fanout::stdev                   0                       # Request fanout histogram
system.membus.snoop_fanout::underflows              0      0.00%      0.00% # Request fanout histogram
system.membus.snoop_fanout::0                   17450    100.00%    100.00% # Request fanout histogram
system.membus.snoop_fanout::1                       0      0.00%    100.00% # Request fanout histogram
system.membus.snoop_fanout::overflows               0      0.00%    100.00% # Request fanout histogram
system.membus.snoop_fanout::min_value               0                       # Request fanout histogram
system.membus.snoop_fanout::max_value               0                       # Request fanout histogram
system.membus.snoop_fanout::total               17450                       # Request fanout histogram
system.membus.snoop_filter.hit_multi_requests            0                       # Number of requests hitting in the snoop filter with multiple (>1) holders of the requested data.
system.membus.snoop_filter.hit_multi_snoops            0                       # Number of snoops hitting in the snoop filter with multiple (>1) holders of the requested data.
system.membus.snoop_filter.hit_single_requests            0                       # Number of requests hitting in the snoop filter with a single holder of the requested data.
system.membus.snoop_filter.hit_single_snoops            0                       # Number of snoops hitting in the snoop filter with a single holder of the requested data.
system.membus.snoop_filter.tot_requests             0                       # Total number of requests made to the snoop filter.
system.membus.snoop_filter.tot_snoops               0                       # Total number of snoops made to the snoop filter.
system.membus.snoops                                0                       # Total snoops (count)
system.membus.trans_dist::ReadReq               15487                       # Transaction distribution
system.membus.trans_dist::ReadResp              15487                       # Transaction distribution
system.membus.trans_dist::WriteReq               1963                       # Transaction distribution
system.membus.trans_dist::WriteResp              1963                       # Transaction distribution

---------- End Simulation Statistics   ----------
