
---------- Begin Simulation Statistics ----------
final_tick                                  156659811                       # Number of ticks from beginning of simulation (restored from checkpoints and never reset)
host_inst_rate                                  48870                       # Simulator instruction rate (inst/s)
host_mem_usage                                 813976                       # Number of bytes of host memory used
host_op_rate                                    55516                       # Simulator op (including micro ops) rate (op/s)
host_seconds                                     0.77                       # Real time elapsed on the host
host_tick_rate                              202501167                       # Simulator tick rate (ticks/s)
sim_freq                                 1000000000000                       # Frequency of simulated ticks
sim_insts                                       37790                       # Number of instructions simulated
sim_ops                                         42947                       # Number of ops (including micro ops) simulated
sim_seconds                                  0.000157                       # Number of seconds simulated
sim_ticks                                   156659811                       # Number of ticks simulated
system.clk_domain.clock                           833                       # Clock period in ticks
system.clk_domain.voltage_domain.voltage            1                       # Voltage in Volts
system.cpu.branchPred.BTBCorrect                    0                       # Number of correct BTB predictions (this stat may not work properly.
system.cpu.branchPred.BTBHitPct             46.813496                       # BTB Hit Percentage
system.cpu.branchPred.BTBHits                    3996                       # Number of BTB hits
system.cpu.branchPred.BTBLookups                 8536                       # Number of BTB lookups
system.cpu.branchPred.RASInCorrect                  0                       # Number of incorrect RAS predictions.
system.cpu.branchPred.condIncorrect              1713                       # Number of conditional branches incorrect
system.cpu.branchPred.condPredicted              8480                       # Number of conditional branches predicted
system.cpu.branchPred.indirectHits                  3                       # Number of indirect target hits.
system.cpu.branchPred.indirectLookups             123                       # Number of indirect predictor lookups.
system.cpu.branchPred.indirectMisses              120                       # Number of indirect misses.
system.cpu.branchPred.lookups                   10627                       # Number of BP lookups
system.cpu.branchPred.usedRAS                     650                       # Number of times the RAS was used to get a target.
system.cpu.branchPredindirectMispredicted           60                       # Number of mispredicted indirect branches.
system.cpu.committedInsts                       37790                       # Number of instructions committed
system.cpu.committedOps                         42947                       # Number of ops (including micro ops) committed
system.cpu.cpi                               4.976634                       # CPI: cycles per instruction
system.cpu.dcache.LoadLockedReq_accesses::.cpu.data          441                       # number of LoadLockedReq accesses(hits+misses)
system.cpu.dcache.LoadLockedReq_accesses::total          441                       # number of LoadLockedReq accesses(hits+misses)
system.cpu.dcache.LoadLockedReq_avg_miss_latency::.cpu.data       135779                       # average LoadLockedReq miss latency
system.cpu.dcache.LoadLockedReq_avg_miss_latency::total       135779                       # average LoadLockedReq miss latency
system.cpu.dcache.LoadLockedReq_avg_mshr_miss_latency::.cpu.data       134113                       # average LoadLockedReq mshr miss latency
system.cpu.dcache.LoadLockedReq_avg_mshr_miss_latency::total       134113                       # average LoadLockedReq mshr miss latency
system.cpu.dcache.LoadLockedReq_hits::.cpu.data          440                       # number of LoadLockedReq hits
system.cpu.dcache.LoadLockedReq_hits::total          440                       # number of LoadLockedReq hits
system.cpu.dcache.LoadLockedReq_miss_latency::.cpu.data       135779                       # number of LoadLockedReq miss cycles
system.cpu.dcache.LoadLockedReq_miss_latency::total       135779                       # number of LoadLockedReq miss cycles
system.cpu.dcache.LoadLockedReq_miss_rate::.cpu.data     0.002268                       # miss rate for LoadLockedReq accesses
system.cpu.dcache.LoadLockedReq_miss_rate::total     0.002268                       # miss rate for LoadLockedReq accesses
system.cpu.dcache.LoadLockedReq_misses::.cpu.data            1                       # number of LoadLockedReq misses
system.cpu.dcache.LoadLockedReq_misses::total            1                       # number of LoadLockedReq misses
system.cpu.dcache.LoadLockedReq_mshr_miss_latency::.cpu.data       134113                       # number of LoadLockedReq MSHR miss cycles
system.cpu.dcache.LoadLockedReq_mshr_miss_latency::total       134113                       # number of LoadLockedReq MSHR miss cycles
system.cpu.dcache.LoadLockedReq_mshr_miss_rate::.cpu.data     0.002268                       # mshr miss rate for LoadLockedReq accesses
system.cpu.dcache.LoadLockedReq_mshr_miss_rate::total     0.002268                       # mshr miss rate for LoadLockedReq accesses
system.cpu.dcache.LoadLockedReq_mshr_misses::.cpu.data            1                       # number of LoadLockedReq MSHR misses
system.cpu.dcache.LoadLockedReq_mshr_misses::total            1                       # number of LoadLockedReq MSHR misses
system.cpu.dcache.ReadReq_accesses::.cpu.data         8462                       # number of ReadReq accesses(hits+misses)
system.cpu.dcache.ReadReq_accesses::total         8462                       # number of ReadReq accesses(hits+misses)
system.cpu.dcache.ReadReq_avg_miss_latency::.cpu.data 126007.777778                       # average ReadReq miss latency
system.cpu.dcache.ReadReq_avg_miss_latency::total 126007.777778                       # average ReadReq miss latency
system.cpu.dcache.ReadReq_avg_mshr_miss_latency::.cpu.data 123859.650407                       # average ReadReq mshr miss latency
system.cpu.dcache.ReadReq_avg_mshr_miss_latency::total 123859.650407                       # average ReadReq mshr miss latency
system.cpu.dcache.ReadReq_hits::.cpu.data         8336                       # number of ReadReq hits
system.cpu.dcache.ReadReq_hits::total            8336                       # number of ReadReq hits
system.cpu.dcache.ReadReq_miss_latency::.cpu.data     15876980                       # number of ReadReq miss cycles
system.cpu.dcache.ReadReq_miss_latency::total     15876980                       # number of ReadReq miss cycles
system.cpu.dcache.ReadReq_miss_rate::.cpu.data     0.014890                       # miss rate for ReadReq accesses
system.cpu.dcache.ReadReq_miss_rate::total     0.014890                       # miss rate for ReadReq accesses
system.cpu.dcache.ReadReq_misses::.cpu.data          126                       # number of ReadReq misses
system.cpu.dcache.ReadReq_misses::total           126                       # number of ReadReq misses
system.cpu.dcache.ReadReq_mshr_hits::.cpu.data            3                       # number of ReadReq MSHR hits
system.cpu.dcache.ReadReq_mshr_hits::total            3                       # number of ReadReq MSHR hits
system.cpu.dcache.ReadReq_mshr_miss_latency::.cpu.data     15234737                       # number of ReadReq MSHR miss cycles
system.cpu.dcache.ReadReq_mshr_miss_latency::total     15234737                       # number of ReadReq MSHR miss cycles
system.cpu.dcache.ReadReq_mshr_miss_rate::.cpu.data     0.014536                       # mshr miss rate for ReadReq accesses
system.cpu.dcache.ReadReq_mshr_miss_rate::total     0.014536                       # mshr miss rate for ReadReq accesses
system.cpu.dcache.ReadReq_mshr_misses::.cpu.data          123                       # number of ReadReq MSHR misses
system.cpu.dcache.ReadReq_mshr_misses::total          123                       # number of ReadReq MSHR misses
system.cpu.dcache.StoreCondReq_accesses::.cpu.data          441                       # number of StoreCondReq accesses(hits+misses)
system.cpu.dcache.StoreCondReq_accesses::total          441                       # number of StoreCondReq accesses(hits+misses)
system.cpu.dcache.StoreCondReq_hits::.cpu.data          441                       # number of StoreCondReq hits
system.cpu.dcache.StoreCondReq_hits::total          441                       # number of StoreCondReq hits
system.cpu.dcache.WriteReq_accesses::.cpu.data         6507                       # number of WriteReq accesses(hits+misses)
system.cpu.dcache.WriteReq_accesses::total         6507                       # number of WriteReq accesses(hits+misses)
system.cpu.dcache.WriteReq_avg_miss_latency::.cpu.data 139358.153846                       # average WriteReq miss latency
system.cpu.dcache.WriteReq_avg_miss_latency::total 139358.153846                       # average WriteReq miss latency
system.cpu.dcache.WriteReq_avg_mshr_miss_latency::.cpu.data 139767.788462                       # average WriteReq mshr miss latency
system.cpu.dcache.WriteReq_avg_mshr_miss_latency::total 139767.788462                       # average WriteReq mshr miss latency
system.cpu.dcache.WriteReq_hits::.cpu.data         6234                       # number of WriteReq hits
system.cpu.dcache.WriteReq_hits::total           6234                       # number of WriteReq hits
system.cpu.dcache.WriteReq_miss_latency::.cpu.data     38044776                       # number of WriteReq miss cycles
system.cpu.dcache.WriteReq_miss_latency::total     38044776                       # number of WriteReq miss cycles
system.cpu.dcache.WriteReq_miss_rate::.cpu.data     0.041955                       # miss rate for WriteReq accesses
system.cpu.dcache.WriteReq_miss_rate::total     0.041955                       # miss rate for WriteReq accesses
system.cpu.dcache.WriteReq_misses::.cpu.data          273                       # number of WriteReq misses
system.cpu.dcache.WriteReq_misses::total          273                       # number of WriteReq misses
system.cpu.dcache.WriteReq_mshr_hits::.cpu.data          117                       # number of WriteReq MSHR hits
system.cpu.dcache.WriteReq_mshr_hits::total          117                       # number of WriteReq MSHR hits
system.cpu.dcache.WriteReq_mshr_miss_latency::.cpu.data     21803775                       # number of WriteReq MSHR miss cycles
system.cpu.dcache.WriteReq_mshr_miss_latency::total     21803775                       # number of WriteReq MSHR miss cycles
system.cpu.dcache.WriteReq_mshr_miss_rate::.cpu.data     0.023974                       # mshr miss rate for WriteReq accesses
system.cpu.dcache.WriteReq_mshr_miss_rate::total     0.023974                       # mshr miss rate for WriteReq accesses
system.cpu.dcache.WriteReq_mshr_misses::.cpu.data          156                       # number of WriteReq MSHR misses
system.cpu.dcache.WriteReq_mshr_misses::total          156                       # number of WriteReq MSHR misses
system.cpu.dcache.avg_blocked_cycles::no_mshrs          nan                       # average number of cycles each access was blocked
system.cpu.dcache.avg_blocked_cycles::no_targets          nan                       # average number of cycles each access was blocked
system.cpu.dcache.blocked::no_mshrs                 0                       # number of cycles access was blocked
system.cpu.dcache.blocked::no_targets               0                       # number of cycles access was blocked
system.cpu.dcache.blocked_cycles::no_mshrs            0                       # number of cycles access was blocked
system.cpu.dcache.blocked_cycles::no_targets            0                       # number of cycles access was blocked
system.cpu.dcache.demand_accesses::.cpu.data        14969                       # number of demand (read+write) accesses
system.cpu.dcache.demand_accesses::total        14969                       # number of demand (read+write) accesses
system.cpu.dcache.demand_avg_miss_latency::.cpu.data 135142.245614                       # average overall miss latency
system.cpu.dcache.demand_avg_miss_latency::total 135142.245614                       # average overall miss latency
system.cpu.dcache.demand_avg_mshr_miss_latency::.cpu.data 132754.523297                       # average overall mshr miss latency
system.cpu.dcache.demand_avg_mshr_miss_latency::total 132754.523297                       # average overall mshr miss latency
system.cpu.dcache.demand_hits::.cpu.data        14570                       # number of demand (read+write) hits
system.cpu.dcache.demand_hits::total            14570                       # number of demand (read+write) hits
system.cpu.dcache.demand_miss_latency::.cpu.data     53921756                       # number of demand (read+write) miss cycles
system.cpu.dcache.demand_miss_latency::total     53921756                       # number of demand (read+write) miss cycles
system.cpu.dcache.demand_miss_rate::.cpu.data     0.026655                       # miss rate for demand accesses
system.cpu.dcache.demand_miss_rate::total     0.026655                       # miss rate for demand accesses
system.cpu.dcache.demand_misses::.cpu.data          399                       # number of demand (read+write) misses
system.cpu.dcache.demand_misses::total            399                       # number of demand (read+write) misses
system.cpu.dcache.demand_mshr_hits::.cpu.data          120                       # number of demand (read+write) MSHR hits
system.cpu.dcache.demand_mshr_hits::total          120                       # number of demand (read+write) MSHR hits
system.cpu.dcache.demand_mshr_miss_latency::.cpu.data     37038512                       # number of demand (read+write) MSHR miss cycles
system.cpu.dcache.demand_mshr_miss_latency::total     37038512                       # number of demand (read+write) MSHR miss cycles
system.cpu.dcache.demand_mshr_miss_rate::.cpu.data     0.018639                       # mshr miss rate for demand accesses
system.cpu.dcache.demand_mshr_miss_rate::total     0.018639                       # mshr miss rate for demand accesses
system.cpu.dcache.demand_mshr_misses::.cpu.data          279                       # number of demand (read+write) MSHR misses
system.cpu.dcache.demand_mshr_misses::total          279                       # number of demand (read+write) MSHR misses
system.cpu.dcache.overall_accesses::.cpu.data        14969                       # number of overall (read+write) accesses
system.cpu.dcache.overall_accesses::total        14969                       # number of overall (read+write) accesses
system.cpu.dcache.overall_avg_miss_latency::.cpu.data 135142.245614                       # average overall miss latency
system.cpu.dcache.overall_avg_miss_latency::total 135142.245614                       # average overall miss latency
system.cpu.dcache.overall_avg_mshr_miss_latency::.cpu.data 132754.523297                       # average overall mshr miss latency
system.cpu.dcache.overall_avg_mshr_miss_latency::total 132754.523297                       # average overall mshr miss latency
system.cpu.dcache.overall_hits::.cpu.data        14570                       # number of overall hits
system.cpu.dcache.overall_hits::total           14570                       # number of overall hits
system.cpu.dcache.overall_miss_latency::.cpu.data     53921756                       # number of overall miss cycles
system.cpu.dcache.overall_miss_latency::total     53921756                       # number of overall miss cycles
system.cpu.dcache.overall_miss_rate::.cpu.data     0.026655                       # miss rate for overall accesses
system.cpu.dcache.overall_miss_rate::total     0.026655                       # miss rate for overall accesses
system.cpu.dcache.overall_misses::.cpu.data          399                       # number of overall misses
system.cpu.dcache.overall_misses::total           399                       # number of overall misses
system.cpu.dcache.overall_mshr_hits::.cpu.data          120                       # number of overall MSHR hits
system.cpu.dcache.overall_mshr_hits::total          120                       # number of overall MSHR hits
system.cpu.dcache.overall_mshr_miss_latency::.cpu.data     37038512                       # number of overall MSHR miss cycles
system.cpu.dcache.overall_mshr_miss_latency::total     37038512                       # number of overall MSHR miss cycles
system.cpu.dcache.overall_mshr_miss_rate::.cpu.data     0.018639                       # mshr miss rate for overall accesses
system.cpu.dcache.overall_mshr_miss_rate::total     0.018639                       # mshr miss rate for overall accesses
system.cpu.dcache.overall_mshr_misses::.cpu.data          279                       # number of overall MSHR misses
system.cpu.dcache.overall_mshr_misses::total          279                       # number of overall MSHR misses
system.cpu.dcache.pwrStateResidencyTicks::UNDEFINED    156659811                       # Cumulative time (in ticks) in various power states
system.cpu.dcache.replacements                     74                       # number of replacements
system.cpu.dcache.tags.age_task_id_blocks_1024::0           19                       # Occupied blocks per task id
system.cpu.dcache.tags.age_task_id_blocks_1024::1           86                       # Occupied blocks per task id
system.cpu.dcache.tags.age_task_id_blocks_1024::2          101                       # Occupied blocks per task id
system.cpu.dcache.tags.avg_refs             56.182143                       # Average number of references to valid blocks.
system.cpu.dcache.tags.data_accesses            31982                       # Number of data accesses
system.cpu.dcache.tags.occ_blocks::.cpu.data   146.772592                       # Average occupied blocks per requestor
system.cpu.dcache.tags.occ_percent::.cpu.data     0.573330                       # Average percentage of cache occupancy
system.cpu.dcache.tags.occ_percent::total     0.573330                       # Average percentage of cache occupancy
system.cpu.dcache.tags.occ_task_id_blocks::1024          206                       # Occupied blocks per task id
system.cpu.dcache.tags.occ_task_id_percent::1024     0.804688                       # Percentage of cache occupancy per task id
system.cpu.dcache.tags.pwrStateResidencyTicks::UNDEFINED    156659811                       # Cumulative time (in ticks) in various power states
system.cpu.dcache.tags.sampled_refs               280                       # Sample count of references to valid blocks.
system.cpu.dcache.tags.tag_accesses             31982                       # Number of tag accesses
system.cpu.dcache.tags.tagsinuse           146.772592                       # Cycle average of tags in use
system.cpu.dcache.tags.total_refs               15731                       # Total number of references to valid blocks.
system.cpu.dcache.tags.warmup_cycle            287385                       # Cycle when the warmup percentage was hit.
system.cpu.dcache.writebacks::.writebacks           45                       # number of writebacks
system.cpu.dcache.writebacks::total                45                       # number of writebacks
system.cpu.discardedOps                          3767                       # Number of ops (including micro ops) which were discarded before commit
system.cpu.dstage2_mmu.stage2_tlb.accesses            0                       # DTB accesses
system.cpu.dstage2_mmu.stage2_tlb.align_faults            0                       # Number of TLB faults due to alignment restrictions
system.cpu.dstage2_mmu.stage2_tlb.domain_faults            0                       # Number of TLB faults due to domain restrictions
system.cpu.dstage2_mmu.stage2_tlb.flush_entries            0                       # Number of entries that have been flushed from TLB
system.cpu.dstage2_mmu.stage2_tlb.flush_tlb            0                       # Number of times complete TLB was flushed
system.cpu.dstage2_mmu.stage2_tlb.flush_tlb_asid            0                       # Number of times TLB was flushed by ASID
system.cpu.dstage2_mmu.stage2_tlb.flush_tlb_mva            0                       # Number of times TLB was flushed by MVA
system.cpu.dstage2_mmu.stage2_tlb.flush_tlb_mva_asid            0                       # Number of times TLB was flushed by MVA & ASID
system.cpu.dstage2_mmu.stage2_tlb.hits              0                       # DTB hits
system.cpu.dstage2_mmu.stage2_tlb.inst_accesses            0                       # ITB inst accesses
system.cpu.dstage2_mmu.stage2_tlb.inst_hits            0                       # ITB inst hits
system.cpu.dstage2_mmu.stage2_tlb.inst_misses            0                       # ITB inst misses
system.cpu.dstage2_mmu.stage2_tlb.misses            0                       # DTB misses
system.cpu.dstage2_mmu.stage2_tlb.perms_faults            0                       # Number of TLB faults due to permissions restrictions
system.cpu.dstage2_mmu.stage2_tlb.prefetch_faults            0                       # Number of TLB faults due to prefetch
system.cpu.dstage2_mmu.stage2_tlb.read_accesses            0                       # DTB read accesses
system.cpu.dstage2_mmu.stage2_tlb.read_hits            0                       # DTB read hits
system.cpu.dstage2_mmu.stage2_tlb.read_misses            0                       # DTB read misses
system.cpu.dstage2_mmu.stage2_tlb.walker.pwrStateResidencyTicks::UNDEFINED    156659811                       # Cumulative time (in ticks) in various power states
system.cpu.dstage2_mmu.stage2_tlb.walker.walkRequestOrigin_Requested::Data            0                       # Table walker requests started/completed, data/inst
system.cpu.dstage2_mmu.stage2_tlb.walker.walkRequestOrigin_Requested::Inst            0                       # Table walker requests started/completed, data/inst
system.cpu.dstage2_mmu.stage2_tlb.walker.walkRequestOrigin_Requested::total            0                       # Table walker requests started/completed, data/inst
system.cpu.dstage2_mmu.stage2_tlb.walker.walkRequestOrigin_Completed::Data            0                       # Table walker requests started/completed, data/inst
system.cpu.dstage2_mmu.stage2_tlb.walker.walkRequestOrigin_Completed::Inst            0                       # Table walker requests started/completed, data/inst
system.cpu.dstage2_mmu.stage2_tlb.walker.walkRequestOrigin_Completed::total            0                       # Table walker requests started/completed, data/inst
system.cpu.dstage2_mmu.stage2_tlb.walker.walkRequestOrigin::total            0                       # Table walker requests started/completed, data/inst
system.cpu.dstage2_mmu.stage2_tlb.walker.walks            0                       # Table walker walks requested
system.cpu.dstage2_mmu.stage2_tlb.write_accesses            0                       # DTB write accesses
system.cpu.dstage2_mmu.stage2_tlb.write_hits            0                       # DTB write hits
system.cpu.dstage2_mmu.stage2_tlb.write_misses            0                       # DTB write misses
system.cpu.dtb.accesses                             0                       # DTB accesses
system.cpu.dtb.align_faults                         0                       # Number of TLB faults due to alignment restrictions
system.cpu.dtb.domain_faults                        0                       # Number of TLB faults due to domain restrictions
system.cpu.dtb.flush_entries                        0                       # Number of entries that have been flushed from TLB
system.cpu.dtb.flush_tlb                            0                       # Number of times complete TLB was flushed
system.cpu.dtb.flush_tlb_asid                       0                       # Number of times TLB was flushed by ASID
system.cpu.dtb.flush_tlb_mva                        0                       # Number of times TLB was flushed by MVA
system.cpu.dtb.flush_tlb_mva_asid                   0                       # Number of times TLB was flushed by MVA & ASID
system.cpu.dtb.hits                                 0                       # DTB hits
system.cpu.dtb.inst_accesses                        0                       # ITB inst accesses
system.cpu.dtb.inst_hits                            0                       # ITB inst hits
system.cpu.dtb.inst_misses                          0                       # ITB inst misses
system.cpu.dtb.misses                               0                       # DTB misses
system.cpu.dtb.perms_faults                         0                       # Number of TLB faults due to permissions restrictions
system.cpu.dtb.prefetch_faults                      0                       # Number of TLB faults due to prefetch
system.cpu.dtb.read_accesses                        0                       # DTB read accesses
system.cpu.dtb.read_hits                            0                       # DTB read hits
system.cpu.dtb.read_misses                          0                       # DTB read misses
system.cpu.dtb.walker.pwrStateResidencyTicks::UNDEFINED    156659811                       # Cumulative time (in ticks) in various power states
system.cpu.dtb.walker.walkRequestOrigin_Requested::Data            0                       # Table walker requests started/completed, data/inst
system.cpu.dtb.walker.walkRequestOrigin_Requested::Inst            0                       # Table walker requests started/completed, data/inst
system.cpu.dtb.walker.walkRequestOrigin_Requested::total            0                       # Table walker requests started/completed, data/inst
system.cpu.dtb.walker.walkRequestOrigin_Completed::Data            0                       # Table walker requests started/completed, data/inst
system.cpu.dtb.walker.walkRequestOrigin_Completed::Inst            0                       # Table walker requests started/completed, data/inst
system.cpu.dtb.walker.walkRequestOrigin_Completed::total            0                       # Table walker requests started/completed, data/inst
system.cpu.dtb.walker.walkRequestOrigin::total            0                       # Table walker requests started/completed, data/inst
system.cpu.dtb.walker.walks                         0                       # Table walker walks requested
system.cpu.dtb.write_accesses                       0                       # DTB write accesses
system.cpu.dtb.write_hits                           0                       # DTB write hits
system.cpu.dtb.write_misses                         0                       # DTB write misses
system.cpu.fetch2.amo_instructions                  0                       # Number of memory atomic instructions successfully decoded
system.cpu.fetch2.fp_instructions                   0                       # Number of floating point instructions successfully decoded
system.cpu.fetch2.int_instructions              26275                       # Number of integer instructions successfully decoded
system.cpu.fetch2.load_instructions              9059                       # Number of memory load instructions successfully decoded
system.cpu.fetch2.store_instructions             5542                       # Number of memory store instructions successfully decoded
system.cpu.fetch2.vec_instructions                157                       # Number of SIMD instructions successfully decoded
system.cpu.icache.ReadReq_accesses::.cpu.inst        16272                       # number of ReadReq accesses(hits+misses)
system.cpu.icache.ReadReq_accesses::total        16272                       # number of ReadReq accesses(hits+misses)
system.cpu.icache.ReadReq_avg_miss_latency::.cpu.inst 128439.819088                       # average ReadReq miss latency
system.cpu.icache.ReadReq_avg_miss_latency::total 128439.819088                       # average ReadReq miss latency
system.cpu.icache.ReadReq_avg_mshr_miss_latency::.cpu.inst 126776.192308                       # average ReadReq mshr miss latency
system.cpu.icache.ReadReq_avg_mshr_miss_latency::total 126776.192308                       # average ReadReq mshr miss latency
system.cpu.icache.ReadReq_hits::.cpu.inst        15570                       # number of ReadReq hits
system.cpu.icache.ReadReq_hits::total           15570                       # number of ReadReq hits
system.cpu.icache.ReadReq_miss_latency::.cpu.inst     90164753                       # number of ReadReq miss cycles
system.cpu.icache.ReadReq_miss_latency::total     90164753                       # number of ReadReq miss cycles
system.cpu.icache.ReadReq_miss_rate::.cpu.inst     0.043142                       # miss rate for ReadReq accesses
system.cpu.icache.ReadReq_miss_rate::total     0.043142                       # miss rate for ReadReq accesses
system.cpu.icache.ReadReq_misses::.cpu.inst          702                       # number of ReadReq misses
system.cpu.icache.ReadReq_misses::total           702                       # number of ReadReq misses
system.cpu.icache.ReadReq_mshr_miss_latency::.cpu.inst     88996887                       # number of ReadReq MSHR miss cycles
system.cpu.icache.ReadReq_mshr_miss_latency::total     88996887                       # number of ReadReq MSHR miss cycles
system.cpu.icache.ReadReq_mshr_miss_rate::.cpu.inst     0.043142                       # mshr miss rate for ReadReq accesses
system.cpu.icache.ReadReq_mshr_miss_rate::total     0.043142                       # mshr miss rate for ReadReq accesses
system.cpu.icache.ReadReq_mshr_misses::.cpu.inst          702                       # number of ReadReq MSHR misses
system.cpu.icache.ReadReq_mshr_misses::total          702                       # number of ReadReq MSHR misses
system.cpu.icache.avg_blocked_cycles::no_mshrs          nan                       # average number of cycles each access was blocked
system.cpu.icache.avg_blocked_cycles::no_targets          nan                       # average number of cycles each access was blocked
system.cpu.icache.blocked::no_mshrs                 0                       # number of cycles access was blocked
system.cpu.icache.blocked::no_targets               0                       # number of cycles access was blocked
system.cpu.icache.blocked_cycles::no_mshrs            0                       # number of cycles access was blocked
system.cpu.icache.blocked_cycles::no_targets            0                       # number of cycles access was blocked
system.cpu.icache.demand_accesses::.cpu.inst        16272                       # number of demand (read+write) accesses
system.cpu.icache.demand_accesses::total        16272                       # number of demand (read+write) accesses
system.cpu.icache.demand_avg_miss_latency::.cpu.inst 128439.819088                       # average overall miss latency
system.cpu.icache.demand_avg_miss_latency::total 128439.819088                       # average overall miss latency
system.cpu.icache.demand_avg_mshr_miss_latency::.cpu.inst 126776.192308                       # average overall mshr miss latency
system.cpu.icache.demand_avg_mshr_miss_latency::total 126776.192308                       # average overall mshr miss latency
system.cpu.icache.demand_hits::.cpu.inst        15570                       # number of demand (read+write) hits
system.cpu.icache.demand_hits::total            15570                       # number of demand (read+write) hits
system.cpu.icache.demand_miss_latency::.cpu.inst     90164753                       # number of demand (read+write) miss cycles
system.cpu.icache.demand_miss_latency::total     90164753                       # number of demand (read+write) miss cycles
system.cpu.icache.demand_miss_rate::.cpu.inst     0.043142                       # miss rate for demand accesses
system.cpu.icache.demand_miss_rate::total     0.043142                       # miss rate for demand accesses
system.cpu.icache.demand_misses::.cpu.inst          702                       # number of demand (read+write) misses
system.cpu.icache.demand_misses::total            702                       # number of demand (read+write) misses
system.cpu.icache.demand_mshr_miss_latency::.cpu.inst     88996887                       # number of demand (read+write) MSHR miss cycles
system.cpu.icache.demand_mshr_miss_latency::total     88996887                       # number of demand (read+write) MSHR miss cycles
system.cpu.icache.demand_mshr_miss_rate::.cpu.inst     0.043142                       # mshr miss rate for demand accesses
system.cpu.icache.demand_mshr_miss_rate::total     0.043142                       # mshr miss rate for demand accesses
system.cpu.icache.demand_mshr_misses::.cpu.inst          702                       # number of demand (read+write) MSHR misses
system.cpu.icache.demand_mshr_misses::total          702                       # number of demand (read+write) MSHR misses
system.cpu.icache.overall_accesses::.cpu.inst        16272                       # number of overall (read+write) accesses
system.cpu.icache.overall_accesses::total        16272                       # number of overall (read+write) accesses
system.cpu.icache.overall_avg_miss_latency::.cpu.inst 128439.819088                       # average overall miss latency
system.cpu.icache.overall_avg_miss_latency::total 128439.819088                       # average overall miss latency
system.cpu.icache.overall_avg_mshr_miss_latency::.cpu.inst 126776.192308                       # average overall mshr miss latency
system.cpu.icache.overall_avg_mshr_miss_latency::total 126776.192308                       # average overall mshr miss latency
system.cpu.icache.overall_hits::.cpu.inst        15570                       # number of overall hits
system.cpu.icache.overall_hits::total           15570                       # number of overall hits
system.cpu.icache.overall_miss_latency::.cpu.inst     90164753                       # number of overall miss cycles
system.cpu.icache.overall_miss_latency::total     90164753                       # number of overall miss cycles
system.cpu.icache.overall_miss_rate::.cpu.inst     0.043142                       # miss rate for overall accesses
system.cpu.icache.overall_miss_rate::total     0.043142                       # miss rate for overall accesses
system.cpu.icache.overall_misses::.cpu.inst          702                       # number of overall misses
system.cpu.icache.overall_misses::total           702                       # number of overall misses
system.cpu.icache.overall_mshr_miss_latency::.cpu.inst     88996887                       # number of overall MSHR miss cycles
system.cpu.icache.overall_mshr_miss_latency::total     88996887                       # number of overall MSHR miss cycles
system.cpu.icache.overall_mshr_miss_rate::.cpu.inst     0.043142                       # mshr miss rate for overall accesses
system.cpu.icache.overall_mshr_miss_rate::total     0.043142                       # mshr miss rate for overall accesses
system.cpu.icache.overall_mshr_misses::.cpu.inst          702                       # number of overall MSHR misses
system.cpu.icache.overall_mshr_misses::total          702                       # number of overall MSHR misses
system.cpu.icache.pwrStateResidencyTicks::UNDEFINED    156659811                       # Cumulative time (in ticks) in various power states
system.cpu.icache.replacements                    453                       # number of replacements
system.cpu.icache.tags.age_task_id_blocks_1024::0           60                       # Occupied blocks per task id
system.cpu.icache.tags.age_task_id_blocks_1024::1          166                       # Occupied blocks per task id
system.cpu.icache.tags.age_task_id_blocks_1024::2           22                       # Occupied blocks per task id
system.cpu.icache.tags.avg_refs             23.211127                       # Average number of references to valid blocks.
system.cpu.icache.tags.data_accesses            33245                       # Number of data accesses
system.cpu.icache.tags.occ_blocks::.cpu.inst   194.575609                       # Average occupied blocks per requestor
system.cpu.icache.tags.occ_percent::.cpu.inst     0.760061                       # Average percentage of cache occupancy
system.cpu.icache.tags.occ_percent::total     0.760061                       # Average percentage of cache occupancy
system.cpu.icache.tags.occ_task_id_blocks::1024          248                       # Occupied blocks per task id
system.cpu.icache.tags.occ_task_id_percent::1024     0.968750                       # Percentage of cache occupancy per task id
system.cpu.icache.tags.pwrStateResidencyTicks::UNDEFINED    156659811                       # Cumulative time (in ticks) in various power states
system.cpu.icache.tags.sampled_refs               701                       # Sample count of references to valid blocks.
system.cpu.icache.tags.tag_accesses             33245                       # Number of tag accesses
system.cpu.icache.tags.tagsinuse           194.575609                       # Cycle average of tags in use
system.cpu.icache.tags.total_refs               16271                       # Total number of references to valid blocks.
system.cpu.icache.tags.warmup_cycle            149107                       # Cycle when the warmup percentage was hit.
system.cpu.icache.writebacks::.writebacks          453                       # number of writebacks
system.cpu.icache.writebacks::total               453                       # number of writebacks
system.cpu.idleCycles                          121038                       # Total number of cycles that the object has spent stopped
system.cpu.ipc                               0.200939                       # IPC: instructions per cycle
system.cpu.istage2_mmu.stage2_tlb.accesses            0                       # DTB accesses
system.cpu.istage2_mmu.stage2_tlb.align_faults            0                       # Number of TLB faults due to alignment restrictions
system.cpu.istage2_mmu.stage2_tlb.domain_faults            0                       # Number of TLB faults due to domain restrictions
system.cpu.istage2_mmu.stage2_tlb.flush_entries            0                       # Number of entries that have been flushed from TLB
system.cpu.istage2_mmu.stage2_tlb.flush_tlb            0                       # Number of times complete TLB was flushed
system.cpu.istage2_mmu.stage2_tlb.flush_tlb_asid            0                       # Number of times TLB was flushed by ASID
system.cpu.istage2_mmu.stage2_tlb.flush_tlb_mva            0                       # Number of times TLB was flushed by MVA
system.cpu.istage2_mmu.stage2_tlb.flush_tlb_mva_asid            0                       # Number of times TLB was flushed by MVA & ASID
system.cpu.istage2_mmu.stage2_tlb.hits              0                       # DTB hits
system.cpu.istage2_mmu.stage2_tlb.inst_accesses            0                       # ITB inst accesses
system.cpu.istage2_mmu.stage2_tlb.inst_hits            0                       # ITB inst hits
system.cpu.istage2_mmu.stage2_tlb.inst_misses            0                       # ITB inst misses
system.cpu.istage2_mmu.stage2_tlb.misses            0                       # DTB misses
system.cpu.istage2_mmu.stage2_tlb.perms_faults            0                       # Number of TLB faults due to permissions restrictions
system.cpu.istage2_mmu.stage2_tlb.prefetch_faults            0                       # Number of TLB faults due to prefetch
system.cpu.istage2_mmu.stage2_tlb.read_accesses            0                       # DTB read accesses
system.cpu.istage2_mmu.stage2_tlb.read_hits            0                       # DTB read hits
system.cpu.istage2_mmu.stage2_tlb.read_misses            0                       # DTB read misses
system.cpu.istage2_mmu.stage2_tlb.walker.pwrStateResidencyTicks::UNDEFINED    156659811                       # Cumulative time (in ticks) in various power states
system.cpu.istage2_mmu.stage2_tlb.walker.walkRequestOrigin_Requested::Data            0                       # Table walker requests started/completed, data/inst
system.cpu.istage2_mmu.stage2_tlb.walker.walkRequestOrigin_Requested::Inst            0                       # Table walker requests started/completed, data/inst
system.cpu.istage2_mmu.stage2_tlb.walker.walkRequestOrigin_Requested::total            0                       # Table walker requests started/completed, data/inst
system.cpu.istage2_mmu.stage2_tlb.walker.walkRequestOrigin_Completed::Data            0                       # Table walker requests started/completed, data/inst
system.cpu.istage2_mmu.stage2_tlb.walker.walkRequestOrigin_Completed::Inst            0                       # Table walker requests started/completed, data/inst
system.cpu.istage2_mmu.stage2_tlb.walker.walkRequestOrigin_Completed::total            0                       # Table walker requests started/completed, data/inst
system.cpu.istage2_mmu.stage2_tlb.walker.walkRequestOrigin::total            0                       # Table walker requests started/completed, data/inst
system.cpu.istage2_mmu.stage2_tlb.walker.walks            0                       # Table walker walks requested
system.cpu.istage2_mmu.stage2_tlb.write_accesses            0                       # DTB write accesses
system.cpu.istage2_mmu.stage2_tlb.write_hits            0                       # DTB write hits
system.cpu.istage2_mmu.stage2_tlb.write_misses            0                       # DTB write misses
system.cpu.itb.accesses                             0                       # DTB accesses
system.cpu.itb.align_faults                         0                       # Number of TLB faults due to alignment restrictions
system.cpu.itb.domain_faults                        0                       # Number of TLB faults due to domain restrictions
system.cpu.itb.flush_entries                        0                       # Number of entries that have been flushed from TLB
system.cpu.itb.flush_tlb                            0                       # Number of times complete TLB was flushed
system.cpu.itb.flush_tlb_asid                       0                       # Number of times TLB was flushed by ASID
system.cpu.itb.flush_tlb_mva                        0                       # Number of times TLB was flushed by MVA
system.cpu.itb.flush_tlb_mva_asid                   0                       # Number of times TLB was flushed by MVA & ASID
system.cpu.itb.hits                                 0                       # DTB hits
system.cpu.itb.inst_accesses                        0                       # ITB inst accesses
system.cpu.itb.inst_hits                            0                       # ITB inst hits
system.cpu.itb.inst_misses                          0                       # ITB inst misses
system.cpu.itb.misses                               0                       # DTB misses
system.cpu.itb.perms_faults                         0                       # Number of TLB faults due to permissions restrictions
system.cpu.itb.prefetch_faults                      0                       # Number of TLB faults due to prefetch
system.cpu.itb.read_accesses                        0                       # DTB read accesses
system.cpu.itb.read_hits                            0                       # DTB read hits
system.cpu.itb.read_misses                          0                       # DTB read misses
system.cpu.itb.walker.pwrStateResidencyTicks::UNDEFINED    156659811                       # Cumulative time (in ticks) in various power states
system.cpu.itb.walker.walkRequestOrigin_Requested::Data            0                       # Table walker requests started/completed, data/inst
system.cpu.itb.walker.walkRequestOrigin_Requested::Inst            0                       # Table walker requests started/completed, data/inst
system.cpu.itb.walker.walkRequestOrigin_Requested::total            0                       # Table walker requests started/completed, data/inst
system.cpu.itb.walker.walkRequestOrigin_Completed::Data            0                       # Table walker requests started/completed, data/inst
system.cpu.itb.walker.walkRequestOrigin_Completed::Inst            0                       # Table walker requests started/completed, data/inst
system.cpu.itb.walker.walkRequestOrigin_Completed::total            0                       # Table walker requests started/completed, data/inst
system.cpu.itb.walker.walkRequestOrigin::total            0                       # Table walker requests started/completed, data/inst
system.cpu.itb.walker.walks                         0                       # Table walker walks requested
system.cpu.itb.write_accesses                       0                       # DTB write accesses
system.cpu.itb.write_hits                           0                       # DTB write hits
system.cpu.itb.write_misses                         0                       # DTB write misses
system.cpu.numCycles                           188067                       # number of cpu cycles simulated
system.cpu.numFetchSuspends                         0                       # Number of times Execute suspended instruction fetching
system.cpu.numWorkItemsCompleted                    0                       # number of work items this cpu completed
system.cpu.numWorkItemsStarted                      0                       # number of work items this cpu started
system.cpu.op_class_0::No_OpClass                   8      0.02%      0.02% # Class of committed instruction
system.cpu.op_class_0::IntAlu                   27865     64.88%     64.90% # Class of committed instruction
system.cpu.op_class_0::IntMult                     12      0.03%     64.93% # Class of committed instruction
system.cpu.op_class_0::IntDiv                       3      0.01%     64.94% # Class of committed instruction
system.cpu.op_class_0::FloatAdd                     0      0.00%     64.94% # Class of committed instruction
system.cpu.op_class_0::FloatCmp                     0      0.00%     64.94% # Class of committed instruction
system.cpu.op_class_0::FloatCvt                     0      0.00%     64.94% # Class of committed instruction
system.cpu.op_class_0::FloatMult                    0      0.00%     64.94% # Class of committed instruction
system.cpu.op_class_0::FloatMultAcc                 0      0.00%     64.94% # Class of committed instruction
system.cpu.op_class_0::FloatDiv                     0      0.00%     64.94% # Class of committed instruction
system.cpu.op_class_0::FloatMisc                    0      0.00%     64.94% # Class of committed instruction
system.cpu.op_class_0::FloatSqrt                    0      0.00%     64.94% # Class of committed instruction
system.cpu.op_class_0::SimdAdd                     24      0.06%     64.99% # Class of committed instruction
system.cpu.op_class_0::SimdAddAcc                   0      0.00%     64.99% # Class of committed instruction
system.cpu.op_class_0::SimdAlu                     33      0.08%     65.07% # Class of committed instruction
system.cpu.op_class_0::SimdCmp                     32      0.07%     65.14% # Class of committed instruction
system.cpu.op_class_0::SimdCvt                      0      0.00%     65.14% # Class of committed instruction
system.cpu.op_class_0::SimdMisc                    24      0.06%     65.20% # Class of committed instruction
system.cpu.op_class_0::SimdMult                     0      0.00%     65.20% # Class of committed instruction
system.cpu.op_class_0::SimdMultAcc                  0      0.00%     65.20% # Class of committed instruction
system.cpu.op_class_0::SimdShift                    0      0.00%     65.20% # Class of committed instruction
system.cpu.op_class_0::SimdShiftAcc                 0      0.00%     65.20% # Class of committed instruction
system.cpu.op_class_0::SimdDiv                      0      0.00%     65.20% # Class of committed instruction
system.cpu.op_class_0::SimdSqrt                     0      0.00%     65.20% # Class of committed instruction
system.cpu.op_class_0::SimdFloatAdd                 0      0.00%     65.20% # Class of committed instruction
system.cpu.op_class_0::SimdFloatAlu                 0      0.00%     65.20% # Class of committed instruction
system.cpu.op_class_0::SimdFloatCmp                 0      0.00%     65.20% # Class of committed instruction
system.cpu.op_class_0::SimdFloatCvt                 0      0.00%     65.20% # Class of committed instruction
system.cpu.op_class_0::SimdFloatDiv                 0      0.00%     65.20% # Class of committed instruction
system.cpu.op_class_0::SimdFloatMisc                0      0.00%     65.20% # Class of committed instruction
system.cpu.op_class_0::SimdFloatMult                0      0.00%     65.20% # Class of committed instruction
system.cpu.op_class_0::SimdFloatMultAcc             0      0.00%     65.20% # Class of committed instruction
system.cpu.op_class_0::SimdFloatSqrt                0      0.00%     65.20% # Class of committed instruction
system.cpu.op_class_0::SimdReduceAdd                0      0.00%     65.20% # Class of committed instruction
system.cpu.op_class_0::SimdReduceAlu                0      0.00%     65.20% # Class of committed instruction
system.cpu.op_class_0::SimdReduceCmp                0      0.00%     65.20% # Class of committed instruction
system.cpu.op_class_0::SimdFloatReduceAdd            0      0.00%     65.20% # Class of committed instruction
system.cpu.op_class_0::SimdFloatReduceCmp            0      0.00%     65.20% # Class of committed instruction
system.cpu.op_class_0::SimdAes                      0      0.00%     65.20% # Class of committed instruction
system.cpu.op_class_0::SimdAesMix                   0      0.00%     65.20% # Class of committed instruction
system.cpu.op_class_0::SimdSha1Hash                 0      0.00%     65.20% # Class of committed instruction
system.cpu.op_class_0::SimdSha1Hash2                0      0.00%     65.20% # Class of committed instruction
system.cpu.op_class_0::SimdSha256Hash               0      0.00%     65.20% # Class of committed instruction
system.cpu.op_class_0::SimdSha256Hash2              0      0.00%     65.20% # Class of committed instruction
system.cpu.op_class_0::SimdShaSigma2                0      0.00%     65.20% # Class of committed instruction
system.cpu.op_class_0::SimdShaSigma3                0      0.00%     65.20% # Class of committed instruction
system.cpu.op_class_0::SimdPredAlu                  0      0.00%     65.20% # Class of committed instruction
system.cpu.op_class_0::MemRead                   7997     18.62%     83.82% # Class of committed instruction
system.cpu.op_class_0::MemWrite                  6949     16.18%    100.00% # Class of committed instruction
system.cpu.op_class_0::FloatMemRead                 0      0.00%    100.00% # Class of committed instruction
system.cpu.op_class_0::FloatMemWrite                0      0.00%    100.00% # Class of committed instruction
system.cpu.op_class_0::IprAccess                    0      0.00%    100.00% # Class of committed instruction
system.cpu.op_class_0::InstPrefetch                 0      0.00%    100.00% # Class of committed instruction
system.cpu.op_class_0::total                    42947                       # Class of committed instruction
system.cpu.pwrStateResidencyTicks::ON       156659811                       # Cumulative time (in ticks) in various power states
system.cpu.tickCycles                           67029                       # Number of cycles that the object actually ticked
system.cpu.workload.numSyscalls                    12                       # Number of system calls
system.l2bus.pkt_count_system.cpu.icache.mem_side::system.l2cache.cpu_side         1856                       # Packet count per connected master and slave (bytes)
system.l2bus.pkt_count_system.cpu.dcache.mem_side::system.l2cache.cpu_side          634                       # Packet count per connected master and slave (bytes)
system.l2bus.pkt_count::total                    2490                       # Packet count per connected master and slave (bytes)
system.l2bus.pkt_size_system.cpu.icache.mem_side::system.l2cache.cpu_side        73856                       # Cumulative packet size per connected master and slave (bytes)
system.l2bus.pkt_size_system.cpu.dcache.mem_side::system.l2cache.cpu_side        20800                       # Cumulative packet size per connected master and slave (bytes)
system.l2bus.pkt_size::total                    94656                       # Cumulative packet size per connected master and slave (bytes)
system.l2bus.pwrStateResidencyTicks::UNDEFINED    156659811                       # Cumulative time (in ticks) in various power states
system.l2bus.reqLayer0.occupancy              2086665                       # Layer occupancy (ticks)
system.l2bus.reqLayer0.utilization                1.3                       # Layer utilization (%)
system.l2bus.respLayer0.occupancy             1751799                       # Layer occupancy (ticks)
system.l2bus.respLayer0.utilization               1.1                       # Layer utilization (%)
system.l2bus.respLayer1.occupancy              702216                       # Layer occupancy (ticks)
system.l2bus.respLayer1.utilization               0.4                       # Layer utilization (%)
system.l2bus.snoopTraffic                           0                       # Total snoop traffic (bytes)
system.l2bus.snoop_fanout::samples                982                       # Request fanout histogram
system.l2bus.snoop_fanout::mean              0.015275                       # Request fanout histogram
system.l2bus.snoop_fanout::stdev             0.122707                       # Request fanout histogram
system.l2bus.snoop_fanout::underflows               0      0.00%      0.00% # Request fanout histogram
system.l2bus.snoop_fanout::0                      967     98.47%     98.47% # Request fanout histogram
system.l2bus.snoop_fanout::1                       15      1.53%    100.00% # Request fanout histogram
system.l2bus.snoop_fanout::2                        0      0.00%    100.00% # Request fanout histogram
system.l2bus.snoop_fanout::overflows                0      0.00%    100.00% # Request fanout histogram
system.l2bus.snoop_fanout::min_value                0                       # Request fanout histogram
system.l2bus.snoop_fanout::max_value                1                       # Request fanout histogram
system.l2bus.snoop_fanout::total                  982                       # Request fanout histogram
system.l2bus.snoop_filter.hit_multi_requests           11                       # Number of requests hitting in the snoop filter with multiple (>1) holders of the requested data.
system.l2bus.snoop_filter.hit_multi_snoops            0                       # Number of snoops hitting in the snoop filter with multiple (>1) holders of the requested data.
system.l2bus.snoop_filter.hit_single_requests          531                       # Number of requests hitting in the snoop filter with a single holder of the requested data.
system.l2bus.snoop_filter.hit_single_snoops            0                       # Number of snoops hitting in the snoop filter with a single holder of the requested data.
system.l2bus.snoop_filter.tot_requests           1509                       # Total number of requests made to the snoop filter.
system.l2bus.snoop_filter.tot_snoops                0                       # Total number of snoops made to the snoop filter.
system.l2bus.snoops                                 0                       # Total snoops (count)
system.l2bus.trans_dist::ReadResp                 825                       # Transaction distribution
system.l2bus.trans_dist::WritebackDirty            45                       # Transaction distribution
system.l2bus.trans_dist::WritebackClean           453                       # Transaction distribution
system.l2bus.trans_dist::CleanEvict                29                       # Transaction distribution
system.l2bus.trans_dist::ReadExReq                156                       # Transaction distribution
system.l2bus.trans_dist::ReadExResp               156                       # Transaction distribution
system.l2bus.trans_dist::ReadCleanReq             702                       # Transaction distribution
system.l2bus.trans_dist::ReadSharedReq            124                       # Transaction distribution
system.l2cache.ReadCleanReq_accesses::.cpu.inst          702                       # number of ReadCleanReq accesses(hits+misses)
system.l2cache.ReadCleanReq_accesses::total          702                       # number of ReadCleanReq accesses(hits+misses)
system.l2cache.ReadCleanReq_avg_miss_latency::.cpu.inst 139569.557003                       # average ReadCleanReq miss latency
system.l2cache.ReadCleanReq_avg_miss_latency::total 139569.557003                       # average ReadCleanReq miss latency
system.l2cache.ReadCleanReq_avg_mshr_miss_latency::.cpu.inst 73038.091205                       # average ReadCleanReq mshr miss latency
system.l2cache.ReadCleanReq_avg_mshr_miss_latency::total 73038.091205                       # average ReadCleanReq mshr miss latency
system.l2cache.ReadCleanReq_hits::.cpu.inst           88                       # number of ReadCleanReq hits
system.l2cache.ReadCleanReq_hits::total            88                       # number of ReadCleanReq hits
system.l2cache.ReadCleanReq_miss_latency::.cpu.inst     85695708                       # number of ReadCleanReq miss cycles
system.l2cache.ReadCleanReq_miss_latency::total     85695708                       # number of ReadCleanReq miss cycles
system.l2cache.ReadCleanReq_miss_rate::.cpu.inst     0.874644                       # miss rate for ReadCleanReq accesses
system.l2cache.ReadCleanReq_miss_rate::total     0.874644                       # miss rate for ReadCleanReq accesses
system.l2cache.ReadCleanReq_misses::.cpu.inst          614                       # number of ReadCleanReq misses
system.l2cache.ReadCleanReq_misses::total          614                       # number of ReadCleanReq misses
system.l2cache.ReadCleanReq_mshr_miss_latency::.cpu.inst     44845388                       # number of ReadCleanReq MSHR miss cycles
system.l2cache.ReadCleanReq_mshr_miss_latency::total     44845388                       # number of ReadCleanReq MSHR miss cycles
system.l2cache.ReadCleanReq_mshr_miss_rate::.cpu.inst     0.874644                       # mshr miss rate for ReadCleanReq accesses
system.l2cache.ReadCleanReq_mshr_miss_rate::total     0.874644                       # mshr miss rate for ReadCleanReq accesses
system.l2cache.ReadCleanReq_mshr_misses::.cpu.inst          614                       # number of ReadCleanReq MSHR misses
system.l2cache.ReadCleanReq_mshr_misses::total          614                       # number of ReadCleanReq MSHR misses
system.l2cache.ReadExReq_accesses::.cpu.data          156                       # number of ReadExReq accesses(hits+misses)
system.l2cache.ReadExReq_accesses::total          156                       # number of ReadExReq accesses(hits+misses)
system.l2cache.ReadExReq_avg_miss_latency::.cpu.data 141223.841060                       # average ReadExReq miss latency
system.l2cache.ReadExReq_avg_miss_latency::total 141223.841060                       # average ReadExReq miss latency
system.l2cache.ReadExReq_avg_mshr_miss_latency::.cpu.data 74583.841060                       # average ReadExReq mshr miss latency
system.l2cache.ReadExReq_avg_mshr_miss_latency::total 74583.841060                       # average ReadExReq mshr miss latency
system.l2cache.ReadExReq_hits::.cpu.data            5                       # number of ReadExReq hits
system.l2cache.ReadExReq_hits::total                5                       # number of ReadExReq hits
system.l2cache.ReadExReq_miss_latency::.cpu.data     21324800                       # number of ReadExReq miss cycles
system.l2cache.ReadExReq_miss_latency::total     21324800                       # number of ReadExReq miss cycles
system.l2cache.ReadExReq_miss_rate::.cpu.data     0.967949                       # miss rate for ReadExReq accesses
system.l2cache.ReadExReq_miss_rate::total     0.967949                       # miss rate for ReadExReq accesses
system.l2cache.ReadExReq_misses::.cpu.data          151                       # number of ReadExReq misses
system.l2cache.ReadExReq_misses::total            151                       # number of ReadExReq misses
system.l2cache.ReadExReq_mshr_miss_latency::.cpu.data     11262160                       # number of ReadExReq MSHR miss cycles
system.l2cache.ReadExReq_mshr_miss_latency::total     11262160                       # number of ReadExReq MSHR miss cycles
system.l2cache.ReadExReq_mshr_miss_rate::.cpu.data     0.967949                       # mshr miss rate for ReadExReq accesses
system.l2cache.ReadExReq_mshr_miss_rate::total     0.967949                       # mshr miss rate for ReadExReq accesses
system.l2cache.ReadExReq_mshr_misses::.cpu.data          151                       # number of ReadExReq MSHR misses
system.l2cache.ReadExReq_mshr_misses::total          151                       # number of ReadExReq MSHR misses
system.l2cache.ReadSharedReq_accesses::.cpu.data          124                       # number of ReadSharedReq accesses(hits+misses)
system.l2cache.ReadSharedReq_accesses::total          124                       # number of ReadSharedReq accesses(hits+misses)
system.l2cache.ReadSharedReq_avg_miss_latency::.cpu.data 142507.699029                       # average ReadSharedReq miss latency
system.l2cache.ReadSharedReq_avg_miss_latency::total 142507.699029                       # average ReadSharedReq miss latency
system.l2cache.ReadSharedReq_avg_mshr_miss_latency::.cpu.data 76336.120000                       # average ReadSharedReq mshr miss latency
system.l2cache.ReadSharedReq_avg_mshr_miss_latency::total 76336.120000                       # average ReadSharedReq mshr miss latency
system.l2cache.ReadSharedReq_hits::.cpu.data           21                       # number of ReadSharedReq hits
system.l2cache.ReadSharedReq_hits::total           21                       # number of ReadSharedReq hits
system.l2cache.ReadSharedReq_miss_latency::.cpu.data     14678293                       # number of ReadSharedReq miss cycles
system.l2cache.ReadSharedReq_miss_latency::total     14678293                       # number of ReadSharedReq miss cycles
system.l2cache.ReadSharedReq_miss_rate::.cpu.data     0.830645                       # miss rate for ReadSharedReq accesses
system.l2cache.ReadSharedReq_miss_rate::total     0.830645                       # miss rate for ReadSharedReq accesses
system.l2cache.ReadSharedReq_misses::.cpu.data          103                       # number of ReadSharedReq misses
system.l2cache.ReadSharedReq_misses::total          103                       # number of ReadSharedReq misses
system.l2cache.ReadSharedReq_mshr_hits::.cpu.data            3                       # number of ReadSharedReq MSHR hits
system.l2cache.ReadSharedReq_mshr_hits::total            3                       # number of ReadSharedReq MSHR hits
system.l2cache.ReadSharedReq_mshr_miss_latency::.cpu.data      7633612                       # number of ReadSharedReq MSHR miss cycles
system.l2cache.ReadSharedReq_mshr_miss_latency::total      7633612                       # number of ReadSharedReq MSHR miss cycles
system.l2cache.ReadSharedReq_mshr_miss_rate::.cpu.data     0.806452                       # mshr miss rate for ReadSharedReq accesses
system.l2cache.ReadSharedReq_mshr_miss_rate::total     0.806452                       # mshr miss rate for ReadSharedReq accesses
system.l2cache.ReadSharedReq_mshr_misses::.cpu.data          100                       # number of ReadSharedReq MSHR misses
system.l2cache.ReadSharedReq_mshr_misses::total          100                       # number of ReadSharedReq MSHR misses
system.l2cache.WritebackClean_accesses::.writebacks          443                       # number of WritebackClean accesses(hits+misses)
system.l2cache.WritebackClean_accesses::total          443                       # number of WritebackClean accesses(hits+misses)
system.l2cache.WritebackClean_hits::.writebacks          443                       # number of WritebackClean hits
system.l2cache.WritebackClean_hits::total          443                       # number of WritebackClean hits
system.l2cache.WritebackDirty_accesses::.writebacks           45                       # number of WritebackDirty accesses(hits+misses)
system.l2cache.WritebackDirty_accesses::total           45                       # number of WritebackDirty accesses(hits+misses)
system.l2cache.WritebackDirty_hits::.writebacks           45                       # number of WritebackDirty hits
system.l2cache.WritebackDirty_hits::total           45                       # number of WritebackDirty hits
system.l2cache.avg_blocked_cycles::no_mshrs          nan                       # average number of cycles each access was blocked
system.l2cache.avg_blocked_cycles::no_targets          nan                       # average number of cycles each access was blocked
system.l2cache.blocked::no_mshrs                    0                       # number of cycles access was blocked
system.l2cache.blocked::no_targets                  0                       # number of cycles access was blocked
system.l2cache.blocked_cycles::no_mshrs             0                       # number of cycles access was blocked
system.l2cache.blocked_cycles::no_targets            0                       # number of cycles access was blocked
system.l2cache.demand_accesses::.cpu.inst          702                       # number of demand (read+write) accesses
system.l2cache.demand_accesses::.cpu.data          280                       # number of demand (read+write) accesses
system.l2cache.demand_accesses::total             982                       # number of demand (read+write) accesses
system.l2cache.demand_avg_miss_latency::.cpu.inst 139569.557003                       # average overall miss latency
system.l2cache.demand_avg_miss_latency::.cpu.data 141744.460630                       # average overall miss latency
system.l2cache.demand_avg_miss_latency::total 140205.991935                       # average overall miss latency
system.l2cache.demand_avg_mshr_miss_latency::.cpu.inst 73038.091205                       # average overall mshr miss latency
system.l2cache.demand_avg_mshr_miss_latency::.cpu.data 75281.960159                       # average overall mshr miss latency
system.l2cache.demand_avg_mshr_miss_latency::total 73689.202312                       # average overall mshr miss latency
system.l2cache.demand_hits::.cpu.inst              88                       # number of demand (read+write) hits
system.l2cache.demand_hits::.cpu.data              26                       # number of demand (read+write) hits
system.l2cache.demand_hits::total                 114                       # number of demand (read+write) hits
system.l2cache.demand_miss_latency::.cpu.inst     85695708                       # number of demand (read+write) miss cycles
system.l2cache.demand_miss_latency::.cpu.data     36003093                       # number of demand (read+write) miss cycles
system.l2cache.demand_miss_latency::total    121698801                       # number of demand (read+write) miss cycles
system.l2cache.demand_miss_rate::.cpu.inst     0.874644                       # miss rate for demand accesses
system.l2cache.demand_miss_rate::.cpu.data     0.907143                       # miss rate for demand accesses
system.l2cache.demand_miss_rate::total       0.883910                       # miss rate for demand accesses
system.l2cache.demand_misses::.cpu.inst           614                       # number of demand (read+write) misses
system.l2cache.demand_misses::.cpu.data           254                       # number of demand (read+write) misses
system.l2cache.demand_misses::total               868                       # number of demand (read+write) misses
system.l2cache.demand_mshr_hits::.cpu.data            3                       # number of demand (read+write) MSHR hits
system.l2cache.demand_mshr_hits::total              3                       # number of demand (read+write) MSHR hits
system.l2cache.demand_mshr_miss_latency::.cpu.inst     44845388                       # number of demand (read+write) MSHR miss cycles
system.l2cache.demand_mshr_miss_latency::.cpu.data     18895772                       # number of demand (read+write) MSHR miss cycles
system.l2cache.demand_mshr_miss_latency::total     63741160                       # number of demand (read+write) MSHR miss cycles
system.l2cache.demand_mshr_miss_rate::.cpu.inst     0.874644                       # mshr miss rate for demand accesses
system.l2cache.demand_mshr_miss_rate::.cpu.data     0.896429                       # mshr miss rate for demand accesses
system.l2cache.demand_mshr_miss_rate::total     0.880855                       # mshr miss rate for demand accesses
system.l2cache.demand_mshr_misses::.cpu.inst          614                       # number of demand (read+write) MSHR misses
system.l2cache.demand_mshr_misses::.cpu.data          251                       # number of demand (read+write) MSHR misses
system.l2cache.demand_mshr_misses::total          865                       # number of demand (read+write) MSHR misses
system.l2cache.overall_accesses::.cpu.inst          702                       # number of overall (read+write) accesses
system.l2cache.overall_accesses::.cpu.data          280                       # number of overall (read+write) accesses
system.l2cache.overall_accesses::total            982                       # number of overall (read+write) accesses
system.l2cache.overall_avg_miss_latency::.cpu.inst 139569.557003                       # average overall miss latency
system.l2cache.overall_avg_miss_latency::.cpu.data 141744.460630                       # average overall miss latency
system.l2cache.overall_avg_miss_latency::total 140205.991935                       # average overall miss latency
system.l2cache.overall_avg_mshr_miss_latency::.cpu.inst 73038.091205                       # average overall mshr miss latency
system.l2cache.overall_avg_mshr_miss_latency::.cpu.data 75281.960159                       # average overall mshr miss latency
system.l2cache.overall_avg_mshr_miss_latency::total 73689.202312                       # average overall mshr miss latency
system.l2cache.overall_hits::.cpu.inst             88                       # number of overall hits
system.l2cache.overall_hits::.cpu.data             26                       # number of overall hits
system.l2cache.overall_hits::total                114                       # number of overall hits
system.l2cache.overall_miss_latency::.cpu.inst     85695708                       # number of overall miss cycles
system.l2cache.overall_miss_latency::.cpu.data     36003093                       # number of overall miss cycles
system.l2cache.overall_miss_latency::total    121698801                       # number of overall miss cycles
system.l2cache.overall_miss_rate::.cpu.inst     0.874644                       # miss rate for overall accesses
system.l2cache.overall_miss_rate::.cpu.data     0.907143                       # miss rate for overall accesses
system.l2cache.overall_miss_rate::total      0.883910                       # miss rate for overall accesses
system.l2cache.overall_misses::.cpu.inst          614                       # number of overall misses
system.l2cache.overall_misses::.cpu.data          254                       # number of overall misses
system.l2cache.overall_misses::total              868                       # number of overall misses
system.l2cache.overall_mshr_hits::.cpu.data            3                       # number of overall MSHR hits
system.l2cache.overall_mshr_hits::total             3                       # number of overall MSHR hits
system.l2cache.overall_mshr_miss_latency::.cpu.inst     44845388                       # number of overall MSHR miss cycles
system.l2cache.overall_mshr_miss_latency::.cpu.data     18895772                       # number of overall MSHR miss cycles
system.l2cache.overall_mshr_miss_latency::total     63741160                       # number of overall MSHR miss cycles
system.l2cache.overall_mshr_miss_rate::.cpu.inst     0.874644                       # mshr miss rate for overall accesses
system.l2cache.overall_mshr_miss_rate::.cpu.data     0.896429                       # mshr miss rate for overall accesses
system.l2cache.overall_mshr_miss_rate::total     0.880855                       # mshr miss rate for overall accesses
system.l2cache.overall_mshr_misses::.cpu.inst          614                       # number of overall MSHR misses
system.l2cache.overall_mshr_misses::.cpu.data          251                       # number of overall MSHR misses
system.l2cache.overall_mshr_misses::total          865                       # number of overall MSHR misses
system.l2cache.pwrStateResidencyTicks::UNDEFINED    156659811                       # Cumulative time (in ticks) in various power states
system.l2cache.replacements                         0                       # number of replacements
system.l2cache.tags.age_task_id_blocks_1024::0           63                       # Occupied blocks per task id
system.l2cache.tags.age_task_id_blocks_1024::1          365                       # Occupied blocks per task id
system.l2cache.tags.age_task_id_blocks_1024::2          436                       # Occupied blocks per task id
system.l2cache.tags.avg_refs                 1.729167                       # Average number of references to valid blocks.
system.l2cache.tags.data_accesses               12848                       # Number of data accesses
system.l2cache.tags.occ_blocks::.cpu.inst   374.225964                       # Average occupied blocks per requestor
system.l2cache.tags.occ_blocks::.cpu.data   164.366072                       # Average occupied blocks per requestor
system.l2cache.tags.occ_percent::.cpu.inst     0.091364                       # Average percentage of cache occupancy
system.l2cache.tags.occ_percent::.cpu.data     0.040128                       # Average percentage of cache occupancy
system.l2cache.tags.occ_percent::total       0.131492                       # Average percentage of cache occupancy
system.l2cache.tags.occ_task_id_blocks::1024          864                       # Occupied blocks per task id
system.l2cache.tags.occ_task_id_percent::1024     0.210938                       # Percentage of cache occupancy per task id
system.l2cache.tags.pwrStateResidencyTicks::UNDEFINED    156659811                       # Cumulative time (in ticks) in various power states
system.l2cache.tags.sampled_refs                  864                       # Sample count of references to valid blocks.
system.l2cache.tags.tag_accesses                12848                       # Number of tag accesses
system.l2cache.tags.tagsinuse              538.592036                       # Cycle average of tags in use
system.l2cache.tags.total_refs                   1494                       # Total number of references to valid blocks.
system.l2cache.tags.warmup_cycle                81634                       # Cycle when the warmup percentage was hit.
system.mem_ctrl.avgBusLat                     5000.00                       # Average bus latency per DRAM burst
system.mem_ctrl.avgGap                      181152.43                       # Average gap between requests
system.mem_ctrl.avgMemAccLat                 27484.57                       # Average memory access latency per DRAM burst
system.mem_ctrl.avgPriority_.cpu.inst::samples       613.00                       # Average QoS priority value for accepted requests
system.mem_ctrl.avgPriority_.cpu.data::samples       251.00                       # Average QoS priority value for accepted requests
system.mem_ctrl.avgQLat                       8734.57                       # Average queueing delay per DRAM burst
system.mem_ctrl.avgRdBW                        352.97                       # Average DRAM read bandwidth in MiByte/s
system.mem_ctrl.avgRdBWSys                     352.97                       # Average system read bandwidth in MiByte/s
system.mem_ctrl.avgRdQLen                        1.10                       # Average read queue length when enqueuing
system.mem_ctrl.avgWrBW                          0.00                       # Average achieved write bandwidth in MiByte/s
system.mem_ctrl.avgWrBWSys                       0.00                       # Average system write bandwidth in MiByte/s
system.mem_ctrl.avgWrQLen                        0.00                       # Average write queue length when enqueuing
system.mem_ctrl.busUtil                          2.76                       # Data bus utilization in percentage
system.mem_ctrl.busUtilRead                      2.76                       # Data bus utilization in percentage for reads
system.mem_ctrl.busUtilWrite                     0.00                       # Data bus utilization in percentage for writes
system.mem_ctrl.bw_inst_read::.cpu.inst     250427980                       # Instruction read bandwidth from this memory (bytes/s)
system.mem_ctrl.bw_inst_read::total         250427980                       # Instruction read bandwidth from this memory (bytes/s)
system.mem_ctrl.bw_read::.cpu.inst          250427980                       # Total read bandwidth from this memory (bytes/s)
system.mem_ctrl.bw_read::.cpu.data          102540657                       # Total read bandwidth from this memory (bytes/s)
system.mem_ctrl.bw_read::total              352968637                       # Total read bandwidth from this memory (bytes/s)
system.mem_ctrl.bw_total::.cpu.inst         250427980                       # Total bandwidth to/from this memory (bytes/s)
system.mem_ctrl.bw_total::.cpu.data         102540657                       # Total bandwidth to/from this memory (bytes/s)
system.mem_ctrl.bw_total::total             352968637                       # Total bandwidth to/from this memory (bytes/s)
system.mem_ctrl.bytesPerActivate::samples          205                       # Bytes accessed per row activation
system.mem_ctrl.bytesPerActivate::mean     268.487805                       # Bytes accessed per row activation
system.mem_ctrl.bytesPerActivate::gmean    179.186099                       # Bytes accessed per row activation
system.mem_ctrl.bytesPerActivate::stdev    260.285507                       # Bytes accessed per row activation
system.mem_ctrl.bytesPerActivate::0-127            63     30.73%     30.73% # Bytes accessed per row activation
system.mem_ctrl.bytesPerActivate::128-255           63     30.73%     61.46% # Bytes accessed per row activation
system.mem_ctrl.bytesPerActivate::256-383           29     14.15%     75.61% # Bytes accessed per row activation
system.mem_ctrl.bytesPerActivate::384-511           15      7.32%     82.93% # Bytes accessed per row activation
[...]
system.mem_ctrl.rdQLenPdf::27                       0                       # What read queue length does an incoming req see
system.mem_ctrl.rdQLenPdf::28                       0                       # What read queue length does an incoming req see
system.mem_ctrl.rdQLenPdf::29                       0                       # What read queue length does an incoming req see
system.mem_ctrl.rdQLenPdf::30                       0                       # What read queue length does an incoming req see
system.mem_ctrl.rdQLenPdf::31                       0                       # What read queue length does an incoming req see
system.mem_ctrl.readBursts                        864                       # Number of DRAM read bursts, including those serviced by the write queue
system.mem_ctrl.readPktSize::0                      0                       # Read request sizes (log2)
system.mem_ctrl.readPktSize::1                      0                       # Read request sizes (log2)
system.mem_ctrl.readPktSize::2                      0                       # Read request sizes (log2)
system.mem_ctrl.readPktSize::3                      0                       # Read request sizes (log2)
system.mem_ctrl.readPktSize::4                      0                       # Read request sizes (log2)
system.mem_ctrl.readPktSize::5                      0                       # Read request sizes (log2)
system.mem_ctrl.readPktSize::6                    864                       # Read request sizes (log2)
system.mem_ctrl.readReqs                          864                       # Number of read requests accepted
system.mem_ctrl.readRowHitRate                  75.93                       # Row buffer hit rate for reads
system.mem_ctrl.readRowHits                       656                       # Number of row buffer hits during reads
system.mem_ctrl.servicedByWrQ                       0                       # Number of DRAM read bursts serviced by the write queue
system.mem_ctrl.totBusLat                     4320000                       # Total ticks spent in databus transfers
system.mem_ctrl.totGap                      156515702                       # Total gap between requests
system.mem_ctrl.totMemAccLat                 23746666                       # Total ticks spent from burst creation until serviced by the DRAM
system.mem_ctrl.totQLat                       7546666                       # Total ticks spent queuing
system.mem_ctrl.wrQLenPdf::0                        0                       # What write queue length does an incoming req see
system.mem_ctrl.wrQLenPdf::1                        0                       # What write queue length does an incoming req see
system.mem_ctrl.wrQLenPdf::2                        0                       # What write queue length does an incoming req see
system.mem_ctrl.wrQLenPdf::3                        0                       # What write queue length does an incoming req see
system.mem_ctrl.wrQLenPdf::4                        0                       # What write queue length does an incoming req see
system.mem_ctrl.wrQLenPdf::5                        0                       # What write queue length does an incoming req see
system.mem_ctrl.wrQLenPdf::6                        0                       # What write queue length does an incoming req see
system.mem_ctrl.wrQLenPdf::7                        0                       # What write queue length does an incoming req see
system.mem_ctrl.wrQLenPdf::8                        0                       # What write queue length does an incoming req see
system.mem_ctrl.wrQLenPdf::9                        0                       # What write queue length does an incoming req see
system.mem_ctrl.wrQLenPdf::10                       0                       # What write queue length does an incoming req see
system.mem_ctrl.wrQLenPdf::11                       0                       # What write queue length does an incoming req see
system.mem_ctrl.wrQLenPdf::12                       0                       # What write queue length does an incoming req see
system.mem_ctrl.wrQLenPdf::13                       0                       # What write queue length does an incoming req see
system.mem_ctrl.wrQLenPdf::14                       0                       # What write queue length does an incoming req see
system.mem_ctrl.wrQLenPdf::15                       0                       # What write queue length does an incoming req see
system.mem_ctrl.wrQLenPdf::16                       0                       # What write queue length does an incoming req see
system.mem_ctrl.wrQLenPdf::17                       0                       # What write queue length does an incoming req see
system.mem_ctrl.wrQLenPdf::18                       0                       # What write queue length does an incoming req see
system.mem_ctrl.wrQLenPdf::19                       0                       # What write queue length does an incoming req see
system.mem_ctrl.wrQLenPdf::20                       0                       # What write queue length does an incoming req see
system.mem_ctrl.wrQLenPdf::21                       0                       # What write queue length does an incoming req see
system.mem_ctrl.wrQLenPdf::22                       0                       # What write queue length does an incoming req see
system.mem_ctrl.wrQLenPdf::23                       0                       # What write queue length does an incoming req see
system.mem_ctrl.wrQLenPdf::24                       0                       # What write queue length does an incoming req see
system.mem_ctrl.wrQLenPdf::25                       0                       # What write queue length does an incoming req see
system.mem_ctrl.wrQLenPdf::26                       0                       # What write queue length does an incoming req see
system.mem_ctrl.wrQLenPdf::27                       0                       # What write queue length does an incoming req see
system.mem_ctrl.wrQLenPdf::28                       0                       # What write queue length does an incoming req see
system.mem_ctrl.wrQLenPdf::29                       0                       # What write queue length does an incoming req see
system.mem_ctrl.wrQLenPdf::30                       0                       # What write queue length does an incoming req see
system.mem_ctrl.wrQLenPdf::31                       0                       # What write queue length does an incoming req see
system.mem_ctrl.wrQLenPdf::32                       0                       # What write queue length does an incoming req see
system.mem_ctrl.wrQLenPdf::33                       0                       # What write queue length does an incoming req see
system.mem_ctrl.wrQLenPdf::34                       0                       # What write queue length does an incoming req see
system.mem_ctrl.wrQLenPdf::35                       0                       # What write queue length does an incoming req see
system.mem_ctrl.wrQLenPdf::36                       0                       # What write queue length does an incoming req see
system.mem_ctrl.wrQLenPdf::37                       0                       # What write queue length does an incoming req see
system.mem_ctrl.wrQLenPdf::38                       0                       # What write queue length does an incoming req see
system.mem_ctrl.wrQLenPdf::39                       0                       # What write queue length does an incoming req see
system.mem_ctrl.wrQLenPdf::40                       0                       # What write queue length does an incoming req see
system.mem_ctrl.wrQLenPdf::41                       0                       # What write queue length does an incoming req see
system.mem_ctrl.wrQLenPdf::42                       0                       # What write queue length does an incoming req see
system.mem_ctrl.wrQLenPdf::43                       0                       # What write queue length does an incoming req see
system.mem_ctrl.wrQLenPdf::44                       0                       # What write queue length does an incoming req see
system.mem_ctrl.wrQLenPdf::45                       0                       # What write queue length does an incoming req see
system.mem_ctrl.wrQLenPdf::46                       0                       # What write queue length does an incoming req see
system.mem_ctrl.wrQLenPdf::47                       0                       # What write queue length does an incoming req see
system.mem_ctrl.wrQLenPdf::48                       0                       # What write queue length does an incoming req see
system.mem_ctrl.wrQLenPdf::49                       0                       # What write queue length does an incoming req see
system.mem_ctrl.wrQLenPdf::50                       0                       # What write queue length does an incoming req see
system.mem_ctrl.wrQLenPdf::51                       0                       # What write queue length does an incoming req see
system.mem_ctrl.wrQLenPdf::52                       0                       # What write queue length does an incoming req see
system.mem_ctrl.wrQLenPdf::53                       0                       # What write queue length does an incoming req see
system.mem_ctrl.wrQLenPdf::54                       0                       # What write queue length does an incoming req see
system.mem_ctrl.wrQLenPdf::55                       0                       # What write queue length does an incoming req see
system.mem_ctrl.wrQLenPdf::56                       0                       # What write queue length does an incoming req see
system.mem_ctrl.wrQLenPdf::57                       0                       # What write queue length does an incoming req see
system.mem_ctrl.wrQLenPdf::58                       0                       # What write queue length does an incoming req see
system.mem_ctrl.wrQLenPdf::59                       0                       # What write queue length does an incoming req see
system.mem_ctrl.wrQLenPdf::60                       0                       # What write queue length does an incoming req see
system.mem_ctrl.wrQLenPdf::61                       0                       # What write queue length does an incoming req see
system.mem_ctrl.wrQLenPdf::62                       0                       # What write queue length does an incoming req see
system.mem_ctrl.wrQLenPdf::63                       0                       # What write queue length does an incoming req see
system.mem_ctrl.writeBursts                         0                       # Number of DRAM write bursts, including those merged in the write queue
system.mem_ctrl.writePktSize::0                     0                       # Write request sizes (log2)
system.mem_ctrl.writePktSize::1                     0                       # Write request sizes (log2)
system.mem_ctrl.writePktSize::2                     0                       # Write request sizes (log2)
system.mem_ctrl.writePktSize::3                     0                       # Write request sizes (log2)
system.mem_ctrl.writePktSize::4                     0                       # Write request sizes (log2)
system.mem_ctrl.writePktSize::5                     0                       # Write request sizes (log2)
system.mem_ctrl.writePktSize::6                     0                       # Write request sizes (log2)
system.mem_ctrl.writeReqs                           0                       # Number of write requests accepted
system.mem_ctrl.writeRowHitRate                   nan                       # Row buffer hit rate for writes
system.mem_ctrl.writeRowHits                        0                       # Number of row buffer hits during writes
system.mem_ctrl_0.actBackEnergy              59836890                       # Energy for active background per rank (pJ)
system.mem_ctrl_0.actEnergy                    985320                       # Energy for activate commands per rank (pJ)
system.mem_ctrl_0.actPowerDownEnergy                0                       # Energy for active power-down per rank (pJ)
system.mem_ctrl_0.averagePower             557.975204                       # Core power per rank (mW)
system.mem_ctrl_0.memoryStateTime::IDLE      24868732                       # Time in different power states
system.mem_ctrl_0.memoryStateTime::REF        5200000                       # Time in different power states
system.mem_ctrl_0.memoryStateTime::SREF             0                       # Time in different power states
system.mem_ctrl_0.memoryStateTime::PRE_PDN            0                       # Time in different power states
system.mem_ctrl_0.memoryStateTime::ACT      126591079                       # Time in different power states
system.mem_ctrl_0.memoryStateTime::ACT_PDN            0                       # Time in different power states
system.mem_ctrl_0.preBackEnergy               9768480                       # Energy for precharge background per rank (pJ)
system.mem_ctrl_0.preEnergy                    516120                       # Energy for precharge commands per rank (pJ)
system.mem_ctrl_0.prePowerDownEnergy                0                       # Energy for precharge power-down per rank (pJ)
system.mem_ctrl_0.readEnergy                  4012680                       # Energy for read commands per rank (pJ)
system.mem_ctrl_0.refreshEnergy          12292800.000000                       # Energy for refresh commands per rank (pJ)
system.mem_ctrl_0.selfRefreshEnergy                 0                       # Energy for self refresh per rank (pJ)
system.mem_ctrl_0.totalEnergy                87412290                       # Total energy per rank (pJ)
system.mem_ctrl_0.totalIdleTime                     0                       # Total Idle time Per DRAM Rank
system.mem_ctrl_0.writeEnergy                       0                       # Energy for write commands per rank (pJ)
system.mem_ctrl_1.actBackEnergy              44908590                       # Energy for active background per rank (pJ)
system.mem_ctrl_1.actEnergy                    499800                       # Energy for activate commands per rank (pJ)
system.mem_ctrl_1.actPowerDownEnergy                0                       # Energy for active power-down per rank (pJ)
system.mem_ctrl_1.averagePower             526.357108                       # Core power per rank (mW)
system.mem_ctrl_1.memoryStateTime::IDLE      57648903                       # Time in different power states
system.mem_ctrl_1.memoryStateTime::REF        5200000                       # Time in different power states
system.mem_ctrl_1.memoryStateTime::SREF             0                       # Time in different power states
system.mem_ctrl_1.memoryStateTime::PRE_PDN            0                       # Time in different power states
system.mem_ctrl_1.memoryStateTime::ACT       93810908                       # Time in different power states
system.mem_ctrl_1.memoryStateTime::ACT_PDN            0                       # Time in different power states
system.mem_ctrl_1.preBackEnergy              22339680                       # Energy for precharge background per rank (pJ)
system.mem_ctrl_1.preEnergy                    261855                       # Energy for precharge commands per rank (pJ)
system.mem_ctrl_1.prePowerDownEnergy                0                       # Energy for precharge power-down per rank (pJ)
system.mem_ctrl_1.readEnergy                  2156280                       # Energy for read commands per rank (pJ)
system.mem_ctrl_1.refreshEnergy          12292800.000000                       # Energy for refresh commands per rank (pJ)
system.mem_ctrl_1.selfRefreshEnergy                 0                       # Energy for self refresh per rank (pJ)
system.mem_ctrl_1.totalEnergy                82459005                       # Total energy per rank (pJ)
system.mem_ctrl_1.totalIdleTime                     0                       # Total Idle time Per DRAM Rank
system.mem_ctrl_1.writeEnergy                       0                       # Energy for write commands per rank (pJ)
system.membus.pkt_count_system.l2cache.mem_side::system.mem_ctrl.port         1728                       # Packet count per connected master and slave (bytes)
system.membus.pkt_count::total                   1728                       # Packet count per connected master and slave (bytes)
system.membus.pkt_size_system.l2cache.mem_side::system.mem_ctrl.port        55296                       # Cumulative packet size per connected master and slave (bytes)
system.membus.pkt_size::total                   55296                       # Cumulative packet size per connected master and slave (bytes)
system.membus.pwrStateResidencyTicks::UNDEFINED    156659811                       # Cumulative time (in ticks) in various power states
system.membus.reqLayer0.occupancy              719712                       # Layer occupancy (ticks)
system.membus.reqLayer0.utilization               0.5                       # Layer utilization (%)
system.membus.respLayer0.occupancy            4001982                       # Layer occupancy (ticks)
system.membus.respLayer0.utilization              2.6                       # Layer utilization (%)
system.membus.snoopTraffic                          0                       # Total snoop traffic (bytes)
system.membus.snoop_fanout::samples               864                       # Request fanout histogram
system.membus.snoop_fanout::mean                    0                       # Request fanout histogram
system.membus.snoop_fanout::stdev                   0                       # Request fanout histogram
system.membus.snoop_fanout::underflows              0      0.00%      0.00% # Request fanout histogram
system.membus.snoop_fanout::0                     864    100.00%    100.00% # Request fanout histogram
system.membus.snoop_fanout::1                       0      0.00%    100.00% # Request fanout histogram
system.membus.snoop_fanout::overflows               0      0.00%    100.00% # Request fanout histogram
system.membus.snoop_fanout::min_value               0                       # Request fanout histogram
system.membus.snoop_fanout::max_value               0                       # Request fanout histogram
system.membus.snoop_fanout::total                 864                       # Request fanout histogram
system.membus.snoop_filter.hit_multi_requests            0                       # Number of requests hitting in the snoop filter with multiple (>1) holders of the requested data.
system.membus.snoop_filter.hit_multi_snoops            0                       # Number of snoops hitting in the snoop filter with multiple (>1) holders of the requested data.
system.membus.snoop_filter.hit_single_requests            0                       # Number of requests hitting in the snoop filter with a single holder of the requested data.
system.membus.snoop_filter.hit_single_snoops            0                       # Number of snoops hitting in the snoop filter with a single holder of the requested data.
system.membus.snoop_filter.tot_requests           864                       # Total number of requests made to the snoop filter.
system.membus.snoop_filter.tot_snoops               0                       # Total number of snoops made to the snoop filter.
system.membus.snoops                                0                       # Total snoops (count)
system.membus.trans_dist::ReadResp                713                       # Transaction distribution
system.membus.trans_dist::ReadExReq               151                       # Transaction distribution
system.membus.trans_dist::ReadExResp              151                       # Transaction distribution
system.membus.trans_dist::ReadSharedReq           713                       # Transaction distribution

---------- End Simulation Statistics   ----------
